Program Version,EnergyPlus, Version 23.2.0-7636e6b3e9, YMD=2025.10.15 11:05,
   ** Warning ** ProcessScheduleInput: Schedule:Constant="ALWAYS OFF DISCRETE", Blank Schedule Type Limits Name input -- will not be validated.
   ************* Beginning Zone Sizing Calculations
   ** Warning ** Weather file location will be used rather than entered (IDF) Location object.
   **   ~~~   ** ..Location object=SITE 1
   **   ~~~   ** ..Weather File Location=Edinburgh.AP SCT GBR SRC-TMYx WMO#=031600
   **   ~~~   ** ..due to location differences, Latitude difference=[55.95] degrees, Longitude difference=[3.37] degrees.
   **   ~~~   ** ..Time Zone difference=[0.0] hour(s), Elevation difference=[4110.00] percent, [41.10] meters.
   ** Warning ** GetHTSurfaceData: Surfaces with interface to Ground found but no "Ground Temperatures" were input.
   **   ~~~   ** Found first in surface=ZONE1-2_CAFE_C039BA0E..FACE13
   **   ~~~   ** Defaults, constant throughout the year of (18.0) will be used.
   ** Warning ** CheckUsedConstructions: There are 19 nominally unused constructions in input.
   **   ~~~   ** For explicit details on each unused construction, use Output:Diagnostics,DisplayExtraWarnings;
   ** Warning ** DetermineShadowingCombinations: There are 8 surfaces which are receiving surfaces and are non-convex.
   **   ~~~   ** ...Shadowing values may be inaccurate. Check .shd report file for more surface shading details
   **   ~~~   ** ...Add Output:Diagnostics,DisplayExtraWarnings; to see individual warnings for each surface.
   ** Severe  ** DetermineShadowingCombinations: There are 1 surfaces which are casting surfaces and are non-convex.
   **   ~~~   ** ...Shadowing values may be inaccurate. Check .shd report file for more surface shading details
   **   ~~~   ** ...Add Output:Diagnostics,DisplayExtraWarnings; to see individual severes for each surface.
   ** Warning ** GetSimpleAirModelInputs: ZoneInfiltration:DesignFlowRate="ZONE2-1_MEETING_12_465E56E5_SPACE INFTR_OFFICE-M-C_BR_ 2", Design Flow Rate Calculation Method specifies Flow Rate per Exterior Surface Area, but Exterior Surface Area = 0.  0 Infiltration will result.
   ** Warning ** GetSimpleAirModelInputs: ZoneInfiltration:DesignFlowRate="ZONE2-1_MEETING_10_183A7EF1_SPACE INFTR_OFFICE-M-C_BR_ 2", Design Flow Rate Calculation Method specifies Flow Rate per Exterior Surface Area, but Exterior Surface Area = 0.  0 Infiltration will result.
   ** Warning ** GetSimpleAirModelInputs: ZoneInfiltration:DesignFlowRate="ZONE2-1_MEETING_9_DC6C83D3_SPACE INFTR_OFFICE-M-C_BR_ 2", Design Flow Rate Calculation Method specifies Flow Rate per Exterior Surface Area, but Exterior Surface Area = 0.  0 Infiltration will result.
   ** Warning ** GetSimpleAirModelInputs: ZoneInfiltration:DesignFlowRate="ZONE2-1_MEETING_11_CE9D4C2E_SPACE INFTR_OFFICE-M-C_BR_ 2", Design Flow Rate Calculation Method specifies Flow Rate per Exterior Surface Area, but Exterior Surface Area = 0.  0 Infiltration will result.
   ** Warning ** GetSimpleAirModelInputs: ZoneInfiltration:DesignFlowRate="ZONE2-1_MEETING_13_BAD50B7F_SPACE INFTR_OFFICE-M-C_BR_ 2", Design Flow Rate Calculation Method specifies Flow Rate per Exterior Surface Area, but Exterior Surface Area = 0.  0 Infiltration will result.
   ** Warning ** GetSimpleAirModelInputs: ZoneInfiltration:DesignFlowRate="ZONE2-1_MEETING_14_58C0FE43_SPACE INFTR_OFFICE-M-C_BR_ 2", Design Flow Rate Calculation Method specifies Flow Rate per Exterior Surface Area, but Exterior Surface Area = 0.  0 Infiltration will result.
   ** Warning ** GetSimpleAirModelInputs: ZoneInfiltration:DesignFlowRate="ZONE2-1_MEETING_15_54A628B9_SPACE INFTR_OFFICE-M-C_BR_ 2", Design Flow Rate Calculation Method specifies Flow Rate per Exterior Surface Area, but Exterior Surface Area = 0.  0 Infiltration will result.
   ** Warning ** GetSimpleAirModelInputs: ZoneInfiltration:DesignFlowRate="ZONE2-1_MEETING_16_D44DE828_SPACE INFTR_OFFICE-M-C_BR_ 2", Design Flow Rate Calculation Method specifies Flow Rate per Exterior Surface Area, but Exterior Surface Area = 0.  0 Infiltration will result.
   ** Warning ** GetSimpleAirModelInputs: ZoneInfiltration:DesignFlowRate="ZONE2-1_MEETING_17_AD26577D_SPACE INFTR_OFFICE-M-C_BR_ 2", Design Flow Rate Calculation Method specifies Flow Rate per Exterior Surface Area, but Exterior Surface Area = 0.  0 Infiltration will result.
   ** Warning ** GetSimpleAirModelInputs: ZoneInfiltration:DesignFlowRate="ZONE2-1_MEETING_18_C3FA0FFE_SPACE INFTR_OFFICE-M-C_BR_ 2", Design Flow Rate Calculation Method specifies Flow Rate per Exterior Surface Area, but Exterior Surface Area = 0.  0 Infiltration will result.
   ** Warning ** GetSimpleAirModelInputs: ZoneInfiltration:DesignFlowRate="ZONE2-1_MEETING_19_6762C5BD_SPACE INFTR_OFFICE-M-C_BR_ 2", Design Flow Rate Calculation Method specifies Flow Rate per Exterior Surface Area, but Exterior Surface Area = 0.  0 Infiltration will result.
   ** Warning ** GetSimpleAirModelInputs: ZoneInfiltration:DesignFlowRate="ZONE2-1_MEETING_20_BB5F5374_SPACE INFTR_OFFICE-M-C_BR_ 2", Design Flow Rate Calculation Method specifies Flow Rate per Exterior Surface Area, but Exterior Surface Area = 0.  0 Infiltration will result.
   ** Warning ** GetSimpleAirModelInputs: ZoneInfiltration:DesignFlowRate="ZONE4-1CIRCULATION_1_7168E09F_SPACE INFTR_OFFICE-M-C_BR_ 1", Design Flow Rate Calculation Method specifies Flow Rate per Exterior Surface Area, but Exterior Surface Area = 0.  0 Infiltration will result.
   ** Warning ** GetSimpleAirModelInputs: ZoneInfiltration:DesignFlowRate="ZONE4-1CIRCULATION_15_3297F70C_SPACE INFTR_OFFICE-M-C_BR_ 1", Design Flow Rate Calculation Method specifies Flow Rate per Exterior Surface Area, but Exterior Surface Area = 0.  0 Infiltration will result.
   ** Warning ** GetSimpleAirModelInputs: ZoneInfiltration:DesignFlowRate="ZONE4-1CIRCULATION_6_541F55F8_SPACE INFTR_OFFICE-M-C_BR_ 1", Design Flow Rate Calculation Method specifies Flow Rate per Exterior Surface Area, but Exterior Surface Area = 0.  0 Infiltration will result.
   ** Warning ** GetSimpleAirModelInputs: ZoneInfiltration:DesignFlowRate="ZONE4-1CIRCULATION_14_3C9CBE47_SPACE INFTR_OFFICE-M-C_BR_ 1", Design Flow Rate Calculation Method specifies Flow Rate per Exterior Surface Area, but Exterior Surface Area = 0.  0 Infiltration will result.
   ** Warning ** GetSimpleAirModelInputs: ZoneInfiltration:DesignFlowRate="ZONE4-1CIRCULATION_9_7399E7A8_SPACE INFTR_OFFICE-M-C_BR_ 1", Design Flow Rate Calculation Method specifies Flow Rate per Exterior Surface Area, but Exterior Surface Area = 0.  0 Infiltration will result.
   ** Warning ** GetSimpleAirModelInputs: ZoneInfiltration:DesignFlowRate="ZONE4-2STAIRCASE_6_98EB0E3C_SPACE INFTR_OFFICE-M-C_BR_ 9", Design Flow Rate Calculation Method specifies Flow Rate per Exterior Surface Area, but Exterior Surface Area = 0.  0 Infiltration will result.
   ** Warning ** GetSimpleAirModelInputs: ZoneInfiltration:DesignFlowRate="ZONE4-2STAIRCASE_4_D96FED0A_SPACE INFTR_OFFICE-M-C_BR_ 9", Design Flow Rate Calculation Method specifies Flow Rate per Exterior Surface Area, but Exterior Surface Area = 0.  0 Infiltration will result.
   ** Warning ** GetSimpleAirModelInputs: ZoneInfiltration:DesignFlowRate="ZONE4-2STAIRCASE_2_971AA7EC_SPACE INFTR_OFFICE-M-C_BR_ 9", Design Flow Rate Calculation Method specifies Flow Rate per Exterior Surface Area, but Exterior Surface Area = 0.  0 Infiltration will result.
   ** Warning ** GetSimpleAirModelInputs: ZoneInfiltration:DesignFlowRate="ZONE4-2STAIRCASE_3_CAD931A6_SPACE INFTR_OFFICE-M-C_BR_ 9", Design Flow Rate Calculation Method specifies Flow Rate per Exterior Surface Area, but Exterior Surface Area = 0.  0 Infiltration will result.
   ** Warning ** GetSimpleAirModelInputs: ZoneInfiltration:DesignFlowRate="ZONE4-2STAIRCASE_7_666E637A_SPACE INFTR_OFFICE-M-C_BR_ 9", Design Flow Rate Calculation Method specifies Flow Rate per Exterior Surface Area, but Exterior Surface Area = 0.  0 Infiltration will result.
   ** Warning ** GetSimpleAirModelInputs: ZoneInfiltration:DesignFlowRate="ZONE4-2STAIRCASE_9_593ACCB5_SPACE INFTR_OFFICE-M-C_BR_ 9", Design Flow Rate Calculation Method specifies Flow Rate per Exterior Surface Area, but Exterior Surface Area = 0.  0 Infiltration will result.
   ** Warning ** GetSimpleAirModelInputs: ZoneInfiltration:DesignFlowRate="ZONE5_RROOMS_6_FF18170C_SPACE INFTR_OFFICE-M-C_BR_ 7", Design Flow Rate Calculation Method specifies Flow Rate per Exterior Surface Area, but Exterior Surface Area = 0.  0 Infiltration will result.
   ** Warning ** GetSimpleAirModelInputs: ZoneInfiltration:DesignFlowRate="ZONE6_EQUIPMENT_3_F31A8878_SPACE INFTR_OFFICE-M-C_BR_ 11", Design Flow Rate Calculation Method specifies Flow Rate per Exterior Surface Area, but Exterior Surface Area = 0.  0 Infiltration will result.
   ** Warning ** GetSimpleAirModelInputs: ZoneInfiltration:DesignFlowRate="ZONE7SHAFT_2_D4B916FD_SPACE INFTR_OFFICE-M-C_BR_ 5", Design Flow Rate Calculation Method specifies Flow Rate per Exterior Surface Area, but Exterior Surface Area = 0.  0 Infiltration will result.
   ** Warning ** GetSimpleAirModelInputs: ZoneInfiltration:DesignFlowRate="ZONE7SHAFT_3_EA084389_SPACE INFTR_OFFICE-M-C_BR_ 5", Design Flow Rate Calculation Method specifies Flow Rate per Exterior Surface Area, but Exterior Surface Area = 0.  0 Infiltration will result.
   ** Warning ** GetSimpleAirModelInputs: ZoneInfiltration:DesignFlowRate="ZONE7SHAFT_4_D39F6429_SPACE INFTR_OFFICE-M-C_BR_ 5", Design Flow Rate Calculation Method specifies Flow Rate per Exterior Surface Area, but Exterior Surface Area = 0.  0 Infiltration will result.
   ** Warning ** GetSimpleAirModelInputs: ZoneInfiltration:DesignFlowRate="ZONE7SHAFT_5_DB2DEEF5_SPACE INFTR_OFFICE-M-C_BR_ 5", Design Flow Rate Calculation Method specifies Flow Rate per Exterior Surface Area, but Exterior Surface Area = 0.  0 Infiltration will result.
   ** Warning ** GetSimpleAirModelInputs: ZoneInfiltration:DesignFlowRate="ZONE8_VRF_3_160597A0_SPACE INFTR_OFFICE-M-C_BR_ 8", Design Flow Rate Calculation Method specifies Flow Rate per Exterior Surface Area, but Exterior Surface Area = 0.  0 Infiltration will result.
   ** Warning ** GetSimpleAirModelInputs: ZoneInfiltration:DesignFlowRate="ZONE8_VRF_2_09EF7482_SPACE INFTR_OFFICE-M-C_BR_ 8", Design Flow Rate Calculation Method specifies Flow Rate per Exterior Surface Area, but Exterior Surface Area = 0.  0 Infiltration will result.
   ** Warning ** GetSimpleAirModelInputs: ZoneInfiltration:DesignFlowRate="ZONE8_VRF_4_A320504E_SPACE INFTR_OFFICE-M-C_BR_ 8", Design Flow Rate Calculation Method specifies Flow Rate per Exterior Surface Area, but Exterior Surface Area = 0.  0 Infiltration will result.
   ** Warning ** GetSimpleAirModelInputs: ZoneInfiltration:DesignFlowRate="ZONE9STORE_1_A17ED0D6_SPACE INFTR_OFFICE-M-C_BR_ 4", Design Flow Rate Calculation Method specifies Flow Rate per Exterior Surface Area, but Exterior Surface Area = 0.  0 Infiltration will result.
   ** Warning ** GetSimpleAirModelInputs: ZoneInfiltration:DesignFlowRate="ZONE9STORE_2_1B33B974_SPACE INFTR_OFFICE-M-C_BR_ 4", Design Flow Rate Calculation Method specifies Flow Rate per Exterior Surface Area, but Exterior Surface Area = 0.  0 Infiltration will result.
   ** Warning ** GetElectricEIRChillerInput: Chiller:Electric:EIR="90.1-2019 WATERCOOLED  ROTARY SCREW CHILLER 0"
   **   ~~~   ** Energy input ratio as a function of temperature curve output is not equal to 1.0 (+ or - 10%) at reference conditions.
   **   ~~~   ** Curve output at reference conditions = 1.205
   ** Warning ** SetUpZoneSizingArrays: Requested Sizing for Zone="ZONE7SHAFT_1_FDB86AD9", Zone has no thermostat (ref: ZoneControl:Thermostat, et al)
   ** Warning ** SetUpZoneSizingArrays: Requested Sizing for Zone="ZONE7SHAFT_2_D4B916FD", Zone has no thermostat (ref: ZoneControl:Thermostat, et al)
   ** Warning ** SetUpZoneSizingArrays: Requested Sizing for Zone="ZONE7SHAFT_3_EA084389", Zone has no thermostat (ref: ZoneControl:Thermostat, et al)
   ** Warning ** SetUpZoneSizingArrays: Requested Sizing for Zone="ZONE7SHAFT_4_D39F6429", Zone has no thermostat (ref: ZoneControl:Thermostat, et al)
   ** Warning ** SetUpZoneSizingArrays: Requested Sizing for Zone="ZONE7SHAFT_5_DB2DEEF5", Zone has no thermostat (ref: ZoneControl:Thermostat, et al)
   ** Warning ** SetUpZoneSizingArrays: Requested Sizing for Zone="ZONE7SHAFT_6_667E71F6", Zone has no thermostat (ref: ZoneControl:Thermostat, et al)
   ** Warning ** SetUpZoneSizingArrays: Requested Sizing for Zone="ZONE9STORE_1_A17ED0D6", Zone has no thermostat (ref: ZoneControl:Thermostat, et al)
   ** Warning ** SetUpZoneSizingArrays: Requested Sizing for Zone="ZONE9STORE_2_1B33B974", Zone has no thermostat (ref: ZoneControl:Thermostat, et al)
   ** Warning ** Calculated design cooling load for zone=ZONE1-1_ATRIUM_6A8D9A73 is zero.
   **   ~~~   ** Check Sizing:Zone and ZoneControl:Thermostat inputs.
   ** Warning ** UpdateZoneSizing: Cooling supply air temperature (calculated) within 5C of zone temperature
   **   ~~~   ** ...check zone thermostat set point and design supply air temperatures
   **   ~~~   ** ...zone name = ZONE2-1_MEETING_2_0E073C3E
   **   ~~~   ** ...design sensible cooling load = 71.90 W
   **   ~~~   ** ...thermostat set point temp    = 35.000 C
   **   ~~~   ** ...zone temperature             = 15.001 C
   **   ~~~   ** ...supply air temperature       = 12.778 C
   **   ~~~   ** ...temperature difference       = -2.22284 C
   **   ~~~   ** ...calculated volume flow rate  = 2.58691E-002 m3/s
   **   ~~~   ** ...calculated mass flow rate    = 3.10029E-002 kg/s
   ** Warning ** UpdateZoneSizing: Cooling supply air temperature (calculated) within 5C of zone temperature
   **   ~~~   ** ...check zone thermostat set point and design supply air temperatures
   **   ~~~   ** ...zone name = ZONE2-1_MEETING_4_154BF8BC
   **   ~~~   ** ...design sensible cooling load = 24.44 W
   **   ~~~   ** ...thermostat set point temp    = 35.000 C
   **   ~~~   ** ...zone temperature             = 15.019 C
   **   ~~~   ** ...supply air temperature       = 12.778 C
   **   ~~~   ** ...temperature difference       = -2.24080 C
   **   ~~~   ** ...calculated volume flow rate  = 8.53273E-003 m3/s
   **   ~~~   ** ...calculated mass flow rate    = 1.02261E-002 kg/s
   ** Warning ** UpdateZoneSizing: Cooling supply air temperature (calculated) within 5C of zone temperature
   **   ~~~   ** ...check zone thermostat set point and design supply air temperatures
   **   ~~~   ** ...zone name = ZONE2-1_MEETING_5_B7A8E0C3
   **   ~~~   ** ...design sensible cooling load = 28.54 W
   **   ~~~   ** ...thermostat set point temp    = 35.000 C
   **   ~~~   ** ...zone temperature             = 15.020 C
   **   ~~~   ** ...supply air temperature       = 12.778 C
   **   ~~~   ** ...temperature difference       = -2.24260 C
   **   ~~~   ** ...calculated volume flow rate  = 9.93771E-003 m3/s
   **   ~~~   ** ...calculated mass flow rate    = 1.19099E-002 kg/s
   ** Warning ** UpdateZoneSizing: Cooling supply air temperature (calculated) within 5C of zone temperature
   **   ~~~   ** ...check zone thermostat set point and design supply air temperatures
   **   ~~~   ** ...zone name = ZONE2-1_MEETING_6_75394D70
   **   ~~~   ** ...design sensible cooling load = 3.88 W
   **   ~~~   ** ...thermostat set point temp    = 35.000 C
   **   ~~~   ** ...zone temperature             = 15.001 C
   **   ~~~   ** ...supply air temperature       = 12.778 C
   **   ~~~   ** ...temperature difference       = -2.22355 C
   **   ~~~   ** ...calculated volume flow rate  = 1.37865E-003 m3/s
   **   ~~~   ** ...calculated mass flow rate    = 1.65225E-003 kg/s
   ** Warning ** UpdateZoneSizing: Cooling supply air temperature (calculated) within 5C of zone temperature
   **   ~~~   ** ...check zone thermostat set point and design supply air temperatures
   **   ~~~   ** ...zone name = ZONE2-1_MEETING_7_F519F905
   **   ~~~   ** ...design sensible cooling load = 4.04 W
   **   ~~~   ** ...thermostat set point temp    = 35.000 C
   **   ~~~   ** ...zone temperature             = 15.001 C
   **   ~~~   ** ...supply air temperature       = 12.778 C
   **   ~~~   ** ...temperature difference       = -2.22354 C
   **   ~~~   ** ...calculated volume flow rate  = 1.43570E-003 m3/s
   **   ~~~   ** ...calculated mass flow rate    = 1.72061E-003 kg/s
   ** Warning ** UpdateZoneSizing: Cooling supply air temperature (calculated) within 5C of zone temperature
   **   ~~~   ** ...check zone thermostat set point and design supply air temperatures
   **   ~~~   ** ...zone name = ZONE2-1_MEETING_8_3DE49B7E
   **   ~~~   ** ...design sensible cooling load = 4.73 W
   **   ~~~   ** ...thermostat set point temp    = 35.000 C
   **   ~~~   ** ...zone temperature             = 15.002 C
   **   ~~~   ** ...supply air temperature       = 12.778 C
   **   ~~~   ** ...temperature difference       = -2.22374 C
   **   ~~~   ** ...calculated volume flow rate  = 1.68071E-003 m3/s
   **   ~~~   ** ...calculated mass flow rate    = 2.01425E-003 kg/s
   ** Warning ** Calculated design cooling load for zone=ZONE4-1CIRCULATION_10_7739E39B is zero.
   **   ~~~   ** Check Sizing:Zone and ZoneControl:Thermostat inputs.
   ** Warning ** Calculated design cooling load for zone=ZONE4-1CIRCULATION_11_8851A81F is zero.
   **   ~~~   ** Check Sizing:Zone and ZoneControl:Thermostat inputs.
   ** Warning ** Calculated design cooling load for zone=ZONE4-1CIRCULATION_12_C76A91C3 is zero.
   **   ~~~   ** Check Sizing:Zone and ZoneControl:Thermostat inputs.
   ** Warning ** Calculated design cooling load for zone=ZONE4-1CIRCULATION_13_936781D5 is zero.
   **   ~~~   ** Check Sizing:Zone and ZoneControl:Thermostat inputs.
   ** Warning ** Calculated design cooling load for zone=ZONE4-1CIRCULATION_14_3C9CBE47 is zero.
   **   ~~~   ** Check Sizing:Zone and ZoneControl:Thermostat inputs.
   ** Warning ** Calculated design cooling load for zone=ZONE4-1CIRCULATION_15_3297F70C is zero.
   **   ~~~   ** Check Sizing:Zone and ZoneControl:Thermostat inputs.
   ** Warning ** Calculated design cooling load for zone=ZONE4-1CIRCULATION_16_2A4F0543 is zero.
   **   ~~~   ** Check Sizing:Zone and ZoneControl:Thermostat inputs.
   ** Warning ** Calculated design cooling load for zone=ZONE4-1CIRCULATION_1_7168E09F is zero.
   **   ~~~   ** Check Sizing:Zone and ZoneControl:Thermostat inputs.
   ** Warning ** Calculated design cooling load for zone=ZONE4-1CIRCULATION_2_BD6D9CBE is zero.
   **   ~~~   ** Check Sizing:Zone and ZoneControl:Thermostat inputs.
   ** Warning ** Calculated design cooling load for zone=ZONE4-1CIRCULATION_3_90C8337A is zero.
   **   ~~~   ** Check Sizing:Zone and ZoneControl:Thermostat inputs.
   ** Warning ** Calculated design cooling load for zone=ZONE4-1CIRCULATION_4_B4D13B00 is zero.
   **   ~~~   ** Check Sizing:Zone and ZoneControl:Thermostat inputs.
   ** Warning ** Calculated design cooling load for zone=ZONE4-1CIRCULATION_5_8DFB2DA8 is zero.
   **   ~~~   ** Check Sizing:Zone and ZoneControl:Thermostat inputs.
   ** Warning ** Calculated design cooling load for zone=ZONE4-1CIRCULATION_6_541F55F8 is zero.
   **   ~~~   ** Check Sizing:Zone and ZoneControl:Thermostat inputs.
   ** Warning ** Calculated design cooling load for zone=ZONE4-1CIRCULATION_7_59BBFA97 is zero.
   **   ~~~   ** Check Sizing:Zone and ZoneControl:Thermostat inputs.
   ** Warning ** Calculated design cooling load for zone=ZONE4-1CIRCULATION_8_3570322D is zero.
   **   ~~~   ** Check Sizing:Zone and ZoneControl:Thermostat inputs.
   ** Warning ** Calculated design cooling load for zone=ZONE4-1CIRCULATION_9_7399E7A8 is zero.
   **   ~~~   ** Check Sizing:Zone and ZoneControl:Thermostat inputs.
   ** Warning ** Calculated design cooling load for zone=ZONE4-2STAIRCASE_10_D5759218 is zero.
   **   ~~~   ** Check Sizing:Zone and ZoneControl:Thermostat inputs.
   ** Warning ** Calculated design cooling load for zone=ZONE4-2STAIRCASE_11_8B1E9CFB is zero.
   **   ~~~   ** Check Sizing:Zone and ZoneControl:Thermostat inputs.
   ** Warning ** Calculated design cooling load for zone=ZONE4-2STAIRCASE_1_ACD995B7 is zero.
   **   ~~~   ** Check Sizing:Zone and ZoneControl:Thermostat inputs.
   ** Warning ** Calculated design cooling load for zone=ZONE4-2STAIRCASE_2_971AA7EC is zero.
   **   ~~~   ** Check Sizing:Zone and ZoneControl:Thermostat inputs.
   ** Warning ** Calculated design cooling load for zone=ZONE4-2STAIRCASE_3_CAD931A6 is zero.
   **   ~~~   ** Check Sizing:Zone and ZoneControl:Thermostat inputs.
   ** Warning ** Calculated design cooling load for zone=ZONE4-2STAIRCASE_4_D96FED0A is zero.
   **   ~~~   ** Check Sizing:Zone and ZoneControl:Thermostat inputs.
   ** Warning ** Calculated design cooling load for zone=ZONE4-2STAIRCASE_5_7CE0751D is zero.
   **   ~~~   ** Check Sizing:Zone and ZoneControl:Thermostat inputs.
   ** Warning ** Calculated design cooling load for zone=ZONE4-2STAIRCASE_6_98EB0E3C is zero.
   **   ~~~   ** Check Sizing:Zone and ZoneControl:Thermostat inputs.
   ** Warning ** Calculated design cooling load for zone=ZONE4-2STAIRCASE_7_666E637A is zero.
   **   ~~~   ** Check Sizing:Zone and ZoneControl:Thermostat inputs.
   ** Warning ** Calculated design cooling load for zone=ZONE4-2STAIRCASE_8_023D3CA0 is zero.
   **   ~~~   ** Check Sizing:Zone and ZoneControl:Thermostat inputs.
   ** Warning ** Calculated design cooling load for zone=ZONE4-2STAIRCASE_9_593ACCB5 is zero.
   **   ~~~   ** Check Sizing:Zone and ZoneControl:Thermostat inputs.
   ** Warning ** Calculated design cooling load for zone=ZONE7SHAFT_1_FDB86AD9 is zero.
   **   ~~~   ** Check Sizing:Zone and ZoneControl:Thermostat inputs.
   ** Warning ** Calculated design heating load for zone=ZONE7SHAFT_1_FDB86AD9 is zero.
   **   ~~~   ** Check Sizing:Zone and ZoneControl:Thermostat inputs.
   ** Warning ** Calculated design cooling load for zone=ZONE7SHAFT_2_D4B916FD is zero.
   **   ~~~   ** Check Sizing:Zone and ZoneControl:Thermostat inputs.
   ** Warning ** Calculated design heating load for zone=ZONE7SHAFT_2_D4B916FD is zero.
   **   ~~~   ** Check Sizing:Zone and ZoneControl:Thermostat inputs.
   ** Warning ** Calculated design cooling load for zone=ZONE7SHAFT_3_EA084389 is zero.
   **   ~~~   ** Check Sizing:Zone and ZoneControl:Thermostat inputs.
   ** Warning ** Calculated design heating load for zone=ZONE7SHAFT_3_EA084389 is zero.
   **   ~~~   ** Check Sizing:Zone and ZoneControl:Thermostat inputs.
   ** Warning ** Calculated design cooling load for zone=ZONE7SHAFT_4_D39F6429 is zero.
   **   ~~~   ** Check Sizing:Zone and ZoneControl:Thermostat inputs.
   ** Warning ** Calculated design heating load for zone=ZONE7SHAFT_4_D39F6429 is zero.
   **   ~~~   ** Check Sizing:Zone and ZoneControl:Thermostat inputs.
   ** Warning ** Calculated design cooling load for zone=ZONE7SHAFT_5_DB2DEEF5 is zero.
   **   ~~~   ** Check Sizing:Zone and ZoneControl:Thermostat inputs.
   ** Warning ** Calculated design heating load for zone=ZONE7SHAFT_5_DB2DEEF5 is zero.
   **   ~~~   ** Check Sizing:Zone and ZoneControl:Thermostat inputs.
   ** Warning ** Calculated design cooling load for zone=ZONE7SHAFT_6_667E71F6 is zero.
   **   ~~~   ** Check Sizing:Zone and ZoneControl:Thermostat inputs.
   ** Warning ** Calculated design heating load for zone=ZONE7SHAFT_6_667E71F6 is zero.
   **   ~~~   ** Check Sizing:Zone and ZoneControl:Thermostat inputs.
   ** Warning ** Calculated design cooling load for zone=ZONE9STORE_1_A17ED0D6 is zero.
   **   ~~~   ** Check Sizing:Zone and ZoneControl:Thermostat inputs.
   ** Warning ** Calculated design heating load for zone=ZONE9STORE_1_A17ED0D6 is zero.
   **   ~~~   ** Check Sizing:Zone and ZoneControl:Thermostat inputs.
   ** Warning ** Calculated design cooling load for zone=ZONE9STORE_2_1B33B974 is zero.
   **   ~~~   ** Check Sizing:Zone and ZoneControl:Thermostat inputs.
   ** Warning ** Calculated design heating load for zone=ZONE9STORE_2_1B33B974 is zero.
   **   ~~~   ** Check Sizing:Zone and ZoneControl:Thermostat inputs.
   ************* Beginning System Sizing Calculations
   ************* Beginning Plant Sizing Calculations
   ** Warning ** SizeFanCoilUnit: ZoneHVAC:FourPipeFanCoil: ZONE2-1_MEETING_1_ECA3B0F8 FCU
   **   ~~~   ** ... Maximum supply air flow rate is greater than the maximum fan flow rate.
   **   ~~~   ** ... Fan Coil Unit flow = 0.35570 [m3/s].
   **   ~~~   ** ... Fan = Fan:OnOff: ZONE2-1_MEETING_1_ECA3B0F8 FAN COIL FAN
   **   ~~~   ** ... Fan flow = 0.33000 [m3/s].
   **   ~~~   ** ... Fan Coil Unit flow rate reduced to match the fan flow rate and the simulation continues.
   ** Warning ** SizeFanCoilUnit: ZoneHVAC:FourPipeFanCoil: ZONE2-1_MEETING_2_0E073C3E FCU
   **   ~~~   ** ... Maximum supply air flow rate is greater than the maximum fan flow rate.
   **   ~~~   ** ... Fan Coil Unit flow = 0.40471 [m3/s].
   **   ~~~   ** ... Fan = Fan:OnOff: ZONE2-1_MEETING_2_0E073C3E FAN COIL FAN
   **   ~~~   ** ... Fan flow = 0.33000 [m3/s].
   **   ~~~   ** ... Fan Coil Unit flow rate reduced to match the fan flow rate and the simulation continues.
   ** Warning ** SizeWaterCoil: Coil="ZONE2-1_MEETING_2_0E073C3E FCU COOLING COIL", Cooling Coil has leaving humidity ratio > entering humidity ratio.
   **   ~~~   **     Wair,in =  6.481302E-003 [kgWater/kgDryAir]
   **   ~~~   **     Wair,out = 8.500000E-003 [kgWater/kgDryAir]
   **   ~~~   ** ....coil leaving humidity ratio will be reset to:
   **   ~~~   **     Wair,out = 6.481302E-003 [kgWater/kgDryAir]
   ** Severe  ** Calculation of cooling coil design UA failed for coil ZONE2-1_MEETING_2_0E073C3E FCU COOLING COIL
   **   ~~~   **   Bad starting values for UA
   **   ~~~   **  Coil design UA set to 226.334291 [W/C]
   ** Warning ** SizeFanCoilUnit: ZoneHVAC:FourPipeFanCoil: ZONE2-1_MEETING_3_3B5615BF FCU
   **   ~~~   ** ... Maximum supply air flow rate is greater than the maximum fan flow rate.
   **   ~~~   ** ... Fan Coil Unit flow = 0.36110 [m3/s].
   **   ~~~   ** ... Fan = Fan:OnOff: ZONE2-1_MEETING_3_3B5615BF FAN COIL FAN
   **   ~~~   ** ... Fan flow = 0.33000 [m3/s].
   **   ~~~   ** ... Fan Coil Unit flow rate reduced to match the fan flow rate and the simulation continues.
   ** Warning ** SizeFanCoilUnit: ZoneHVAC:FourPipeFanCoil: ZONE2-1_MEETING_4_154BF8BC FCU
   **   ~~~   ** ... Maximum supply air flow rate is greater than the maximum fan flow rate.
   **   ~~~   ** ... Fan Coil Unit flow = 0.35801 [m3/s].
   **   ~~~   ** ... Fan = Fan:OnOff: ZONE2-1_MEETING_4_154BF8BC FAN COIL FAN
   **   ~~~   ** ... Fan flow = 0.33000 [m3/s].
   **   ~~~   ** ... Fan Coil Unit flow rate reduced to match the fan flow rate and the simulation continues.
   ** Warning ** SizeWaterCoil: Coil="ZONE2-1_MEETING_4_154BF8BC FCU COOLING COIL", Cooling Coil has leaving humidity ratio > entering humidity ratio.
   **   ~~~   **     Wair,in =  2.766558E-003 [kgWater/kgDryAir]
   **   ~~~   **     Wair,out = 8.500000E-003 [kgWater/kgDryAir]
   **   ~~~   ** ....coil leaving humidity ratio will be reset to:
   **   ~~~   **     Wair,out = 2.766558E-003 [kgWater/kgDryAir]
   ** Warning ** SizeFanCoilUnit: ZoneHVAC:FourPipeFanCoil: ZONE2-1_MEETING_5_B7A8E0C3 FCU
   **   ~~~   ** ... Maximum supply air flow rate is greater than the maximum fan flow rate.
   **   ~~~   ** ... Fan Coil Unit flow = 0.35735 [m3/s].
   **   ~~~   ** ... Fan = Fan:OnOff: ZONE2-1_MEETING_5_B7A8E0C3 FAN COIL FAN
   **   ~~~   ** ... Fan flow = 0.33000 [m3/s].
   **   ~~~   ** ... Fan Coil Unit flow rate reduced to match the fan flow rate and the simulation continues.
   ** Warning ** SizeWaterCoil: Coil="ZONE2-1_MEETING_5_B7A8E0C3 FCU COOLING COIL", Cooling Coil has leaving humidity ratio > entering humidity ratio.
   **   ~~~   **     Wair,in =  2.795277E-003 [kgWater/kgDryAir]
   **   ~~~   **     Wair,out = 8.500000E-003 [kgWater/kgDryAir]
   **   ~~~   ** ....coil leaving humidity ratio will be reset to:
   **   ~~~   **     Wair,out = 2.795277E-003 [kgWater/kgDryAir]
   ** Warning ** SizeWaterCoil: Coil="ZONE2-1_MEETING_6_75394D70 FCU COOLING COIL", Cooling Coil has leaving humidity ratio > entering humidity ratio.
   **   ~~~   **     Wair,in =  2.307935E-003 [kgWater/kgDryAir]
   **   ~~~   **     Wair,out = 8.500000E-003 [kgWater/kgDryAir]
   **   ~~~   ** ....coil leaving humidity ratio will be reset to:
   **   ~~~   **     Wair,out = 2.307935E-003 [kgWater/kgDryAir]
   ** Warning ** SizeWaterCoil: Coil="ZONE2-1_MEETING_7_F519F905 FCU COOLING COIL", Cooling Coil has leaving humidity ratio > entering humidity ratio.
   **   ~~~   **     Wair,in =  2.306434E-003 [kgWater/kgDryAir]
   **   ~~~   **     Wair,out = 8.500000E-003 [kgWater/kgDryAir]
   **   ~~~   ** ....coil leaving humidity ratio will be reset to:
   **   ~~~   **     Wair,out = 2.306434E-003 [kgWater/kgDryAir]
   ** Warning ** SizeWaterCoil: Coil="ZONE2-1_MEETING_8_3DE49B7E FCU COOLING COIL", Cooling Coil has leaving humidity ratio > entering humidity ratio.
   **   ~~~   **     Wair,in =  2.361346E-003 [kgWater/kgDryAir]
   **   ~~~   **     Wair,out = 8.500000E-003 [kgWater/kgDryAir]
   **   ~~~   ** ....coil leaving humidity ratio will be reset to:
   **   ~~~   **     Wair,out = 2.361346E-003 [kgWater/kgDryAir]
   ** Warning ** SizeFanCoilUnit: ZoneHVAC:FourPipeFanCoil: ZONE2-2SEMINAR_D779CA07 FCU
   **   ~~~   ** ... Maximum supply air flow rate is greater than the maximum fan flow rate.
   **   ~~~   ** ... Fan Coil Unit flow = 0.44115 [m3/s].
   **   ~~~   ** ... Fan = Fan:OnOff: ZONE2-2SEMINAR_D779CA07 FAN COIL FAN
   **   ~~~   ** ... Fan flow = 0.33000 [m3/s].
   **   ~~~   ** ... Fan Coil Unit flow rate reduced to match the fan flow rate and the simulation continues.
   ** Warning ** SizeFanCoilUnit: ZoneHVAC:FourPipeFanCoil: ZONE3-1_OPENOFFICE_1_9FEE57E6 FCU
   **   ~~~   ** ... Maximum supply air flow rate is greater than the maximum fan flow rate.
   **   ~~~   ** ... Fan Coil Unit flow = 0.65917 [m3/s].
   **   ~~~   ** ... Fan = Fan:OnOff: ZONE3-1_OPENOFFICE_1_9FEE57E6 FAN COIL FAN
   **   ~~~   ** ... Fan flow = 0.33000 [m3/s].
   **   ~~~   ** ... Fan Coil Unit flow rate reduced to match the fan flow rate and the simulation continues.
   ** Warning ** SizeFanCoilUnit: ZoneHVAC:FourPipeFanCoil: ZONE3-1_OPENOFFICE_2_110E1EF3 FCU
   **   ~~~   ** ... Maximum supply air flow rate is greater than the maximum fan flow rate.
   **   ~~~   ** ... Fan Coil Unit flow = 0.79754 [m3/s].
   **   ~~~   ** ... Fan = Fan:OnOff: ZONE3-1_OPENOFFICE_2_110E1EF3 FAN COIL FAN
   **   ~~~   ** ... Fan flow = 0.33000 [m3/s].
   **   ~~~   ** ... Fan Coil Unit flow rate reduced to match the fan flow rate and the simulation continues.
   ** Warning ** SizeFanCoilUnit: ZoneHVAC:FourPipeFanCoil: ZONE3-1_OPENOFFICE_3_5765BE82 FCU
   **   ~~~   ** ... Maximum supply air flow rate is greater than the maximum fan flow rate.
   **   ~~~   ** ... Fan Coil Unit flow = 0.66663 [m3/s].
   **   ~~~   ** ... Fan = Fan:OnOff: ZONE3-1_OPENOFFICE_3_5765BE82 FAN COIL FAN
   **   ~~~   ** ... Fan flow = 0.33000 [m3/s].
   **   ~~~   ** ... Fan Coil Unit flow rate reduced to match the fan flow rate and the simulation continues.
   ** Warning ** SizeFanCoilUnit: ZoneHVAC:FourPipeFanCoil: ZONE3-1_OPENOFFICE_4_DA0DF4CB FCU
   **   ~~~   ** ... Maximum supply air flow rate is greater than the maximum fan flow rate.
   **   ~~~   ** ... Fan Coil Unit flow = 0.64713 [m3/s].
   **   ~~~   ** ... Fan = Fan:OnOff: ZONE3-1_OPENOFFICE_4_DA0DF4CB FAN COIL FAN
   **   ~~~   ** ... Fan flow = 0.33000 [m3/s].
   **   ~~~   ** ... Fan Coil Unit flow rate reduced to match the fan flow rate and the simulation continues.
   ** Warning ** SizeFanCoilUnit: ZoneHVAC:FourPipeFanCoil: ZONE3-1_OPENOFFICE_5_09EEACDA FCU
   **   ~~~   ** ... Maximum supply air flow rate is greater than the maximum fan flow rate.
   **   ~~~   ** ... Fan Coil Unit flow = 0.64494 [m3/s].
   **   ~~~   ** ... Fan = Fan:OnOff: ZONE3-1_OPENOFFICE_5_09EEACDA FAN COIL FAN
   **   ~~~   ** ... Fan flow = 0.33000 [m3/s].
   **   ~~~   ** ... Fan Coil Unit flow rate reduced to match the fan flow rate and the simulation continues.
   ** Warning ** SizeFanCoilUnit: ZoneHVAC:FourPipeFanCoil: ZONE3-2_OPENOFFICE2_10_B9C5C1E2 FCU
   **   ~~~   ** ... Maximum supply air flow rate is greater than the maximum fan flow rate.
   **   ~~~   ** ... Fan Coil Unit flow = 0.35693 [m3/s].
   **   ~~~   ** ... Fan = Fan:OnOff: ZONE3-2_OPENOFFICE2_10_B9C5C1E2 FAN COIL FAN
   **   ~~~   ** ... Fan flow = 0.33000 [m3/s].
   **   ~~~   ** ... Fan Coil Unit flow rate reduced to match the fan flow rate and the simulation continues.
   ** Warning ** SizeFanCoilUnit: ZoneHVAC:FourPipeFanCoil: ZONE3-2_OPENOFFICE2_11_E9A9F9C3 FCU
   **   ~~~   ** ... Maximum supply air flow rate is greater than the maximum fan flow rate.
   **   ~~~   ** ... Fan Coil Unit flow = 0.67957 [m3/s].
   **   ~~~   ** ... Fan = Fan:OnOff: ZONE3-2_OPENOFFICE2_11_E9A9F9C3 FAN COIL FAN
   **   ~~~   ** ... Fan flow = 0.33000 [m3/s].
   **   ~~~   ** ... Fan Coil Unit flow rate reduced to match the fan flow rate and the simulation continues.
   ** Severe  ** Calculation of cooling coil design UA failed for coil ZONE3-2_OPENOFFICE2_12_5847D1C6 FCU COOLING COIL
   **   ~~~   **   Bad starting values for UA
   **   ~~~   **  Coil design UA set to 456.467467 [W/C]
   ** Warning ** SizeFanCoilUnit: ZoneHVAC:FourPipeFanCoil: ZONE3-2_OPENOFFICE2_13_3028A123 FCU
   **   ~~~   ** ... Maximum supply air flow rate is greater than the maximum fan flow rate.
   **   ~~~   ** ... Fan Coil Unit flow = 0.80052 [m3/s].
   **   ~~~   ** ... Fan = Fan:OnOff: ZONE3-2_OPENOFFICE2_13_3028A123 FAN COIL FAN
   **   ~~~   ** ... Fan flow = 0.33000 [m3/s].
   **   ~~~   ** ... Fan Coil Unit flow rate reduced to match the fan flow rate and the simulation continues.
   ** Severe  ** Calculation of cooling coil design UA failed for coil ZONE3-2_OPENOFFICE2_14_E2D86807 FCU COOLING COIL
   **   ~~~   **   Bad starting values for UA
   **   ~~~   **  Coil design UA set to 476.193504 [W/C]
   ** Warning ** SizeFanCoilUnit: ZoneHVAC:FourPipeFanCoil: ZONE3-2_OPENOFFICE2_15_CC8116DD FCU
   **   ~~~   ** ... Maximum supply air flow rate is greater than the maximum fan flow rate.
   **   ~~~   ** ... Fan Coil Unit flow = 0.72051 [m3/s].
   **   ~~~   ** ... Fan = Fan:OnOff: ZONE3-2_OPENOFFICE2_15_CC8116DD FAN COIL FAN
   **   ~~~   ** ... Fan flow = 0.33000 [m3/s].
   **   ~~~   ** ... Fan Coil Unit flow rate reduced to match the fan flow rate and the simulation continues.
   ** Warning ** SizeFanCoilUnit: ZoneHVAC:FourPipeFanCoil: ZONE3-2_OPENOFFICE2_16_ADF85EEC FCU
   **   ~~~   ** ... Maximum supply air flow rate is greater than the maximum fan flow rate.
   **   ~~~   ** ... Fan Coil Unit flow = 0.35635 [m3/s].
   **   ~~~   ** ... Fan = Fan:OnOff: ZONE3-2_OPENOFFICE2_16_ADF85EEC FAN COIL FAN
   **   ~~~   ** ... Fan flow = 0.33000 [m3/s].
   **   ~~~   ** ... Fan Coil Unit flow rate reduced to match the fan flow rate and the simulation continues.
   ** Warning ** SizeFanCoilUnit: ZoneHVAC:FourPipeFanCoil: ZONE3-2_OPENOFFICE2_17_2225E337 FCU
   **   ~~~   ** ... Maximum supply air flow rate is greater than the maximum fan flow rate.
   **   ~~~   ** ... Fan Coil Unit flow = 0.69656 [m3/s].
   **   ~~~   ** ... Fan = Fan:OnOff: ZONE3-2_OPENOFFICE2_17_2225E337 FAN COIL FAN
   **   ~~~   ** ... Fan flow = 0.33000 [m3/s].
   **   ~~~   ** ... Fan Coil Unit flow rate reduced to match the fan flow rate and the simulation continues.
   ** Severe  ** Calculation of cooling coil design UA failed for coil ZONE3-2_OPENOFFICE2_18_C00ED735 FCU COOLING COIL
   **   ~~~   **   Bad starting values for UA
   **   ~~~   **  Coil design UA set to 555.090425 [W/C]
   ** Warning ** SizeFanCoilUnit: ZoneHVAC:FourPipeFanCoil: ZONE3-2_OPENOFFICE2_19_923A5F36 FCU
   **   ~~~   ** ... Maximum supply air flow rate is greater than the maximum fan flow rate.
   **   ~~~   ** ... Fan Coil Unit flow = 0.66433 [m3/s].
   **   ~~~   ** ... Fan = Fan:OnOff: ZONE3-2_OPENOFFICE2_19_923A5F36 FAN COIL FAN
   **   ~~~   ** ... Fan flow = 0.33000 [m3/s].
   **   ~~~   ** ... Fan Coil Unit flow rate reduced to match the fan flow rate and the simulation continues.
   ** Warning ** SizeFanCoilUnit: ZoneHVAC:FourPipeFanCoil: ZONE3-2_OPENOFFICE2_1_ECE2C271 FCU
   **   ~~~   ** ... Maximum supply air flow rate is greater than the maximum fan flow rate.
   **   ~~~   ** ... Fan Coil Unit flow = 0.36113 [m3/s].
   **   ~~~   ** ... Fan = Fan:OnOff: ZONE3-2_OPENOFFICE2_1_ECE2C271 FAN COIL FAN
   **   ~~~   ** ... Fan flow = 0.33000 [m3/s].
   **   ~~~   ** ... Fan Coil Unit flow rate reduced to match the fan flow rate and the simulation continues.
   ** Warning ** SizeFanCoilUnit: ZoneHVAC:FourPipeFanCoil: ZONE3-2_OPENOFFICE2_2_5518A8FC FCU
   **   ~~~   ** ... Maximum supply air flow rate is greater than the maximum fan flow rate.
   **   ~~~   ** ... Fan Coil Unit flow = 0.68435 [m3/s].
   **   ~~~   ** ... Fan = Fan:OnOff: ZONE3-2_OPENOFFICE2_2_5518A8FC FAN COIL FAN
   **   ~~~   ** ... Fan flow = 0.33000 [m3/s].
   **   ~~~   ** ... Fan Coil Unit flow rate reduced to match the fan flow rate and the simulation continues.
   ** Warning ** SizeFanCoilUnit: ZoneHVAC:FourPipeFanCoil: ZONE3-2_OPENOFFICE2_3_C814639C FCU
   **   ~~~   ** ... Maximum supply air flow rate is greater than the maximum fan flow rate.
   **   ~~~   ** ... Fan Coil Unit flow = 0.47656 [m3/s].
   **   ~~~   ** ... Fan = Fan:OnOff: ZONE3-2_OPENOFFICE2_3_C814639C FAN COIL FAN
   **   ~~~   ** ... Fan flow = 0.33000 [m3/s].
   **   ~~~   ** ... Fan Coil Unit flow rate reduced to match the fan flow rate and the simulation continues.
   ** Warning ** SizeFanCoilUnit: ZoneHVAC:FourPipeFanCoil: ZONE3-2_OPENOFFICE2_4_DF3F73FF FCU
   **   ~~~   ** ... Maximum supply air flow rate is greater than the maximum fan flow rate.
   **   ~~~   ** ... Fan Coil Unit flow = 0.45540 [m3/s].
   **   ~~~   ** ... Fan = Fan:OnOff: ZONE3-2_OPENOFFICE2_4_DF3F73FF FAN COIL FAN
   **   ~~~   ** ... Fan flow = 0.33000 [m3/s].
   **   ~~~   ** ... Fan Coil Unit flow rate reduced to match the fan flow rate and the simulation continues.
   ** Warning ** SizeFanCoilUnit: ZoneHVAC:FourPipeFanCoil: ZONE3-2_OPENOFFICE2_5_2A12DE25 FCU
   **   ~~~   ** ... Maximum supply air flow rate is greater than the maximum fan flow rate.
   **   ~~~   ** ... Fan Coil Unit flow = 0.88200 [m3/s].
   **   ~~~   ** ... Fan = Fan:OnOff: ZONE3-2_OPENOFFICE2_5_2A12DE25 FAN COIL FAN
   **   ~~~   ** ... Fan flow = 0.33000 [m3/s].
   **   ~~~   ** ... Fan Coil Unit flow rate reduced to match the fan flow rate and the simulation continues.
   ** Severe  ** Calculation of cooling coil design UA failed for coil ZONE3-2_OPENOFFICE2_6_9B68752E FCU COOLING COIL
   **   ~~~   **   Bad starting values for UA
   **   ~~~   **  Coil design UA set to 704.243739 [W/C]
   ** Severe  ** Calculation of cooling coil design UA failed for coil ZONE3-2_OPENOFFICE2_7_76C03369 FCU COOLING COIL
   **   ~~~   **   Bad starting values for UA
   **   ~~~   **  Coil design UA set to 475.866063 [W/C]
   ** Warning ** SizeFanCoilUnit: ZoneHVAC:FourPipeFanCoil: ZONE3-2_OPENOFFICE2_8_104F9EB4 FCU
   **   ~~~   ** ... Maximum supply air flow rate is greater than the maximum fan flow rate.
   **   ~~~   ** ... Fan Coil Unit flow = 0.75270 [m3/s].
   **   ~~~   ** ... Fan = Fan:OnOff: ZONE3-2_OPENOFFICE2_8_104F9EB4 FAN COIL FAN
   **   ~~~   ** ... Fan flow = 0.33000 [m3/s].
   **   ~~~   ** ... Fan Coil Unit flow rate reduced to match the fan flow rate and the simulation continues.
   ** Warning ** SizeFanCoilUnit: ZoneHVAC:FourPipeFanCoil: ZONE3-2_OPENOFFICE2_9_6C3225F9 FCU
   **   ~~~   ** ... Maximum supply air flow rate is greater than the maximum fan flow rate.
   **   ~~~   ** ... Fan Coil Unit flow = 0.36911 [m3/s].
   **   ~~~   ** ... Fan = Fan:OnOff: ZONE3-2_OPENOFFICE2_9_6C3225F9 FAN COIL FAN
   **   ~~~   ** ... Fan flow = 0.33000 [m3/s].
   **   ~~~   ** ... Fan Coil Unit flow rate reduced to match the fan flow rate and the simulation continues.
   ** Warning ** SizeFanCoilUnit: ZoneHVAC:FourPipeFanCoil: ZONE3-3_LAB_23607840 FCU
   **   ~~~   ** ... Maximum supply air flow rate is greater than the maximum fan flow rate.
   **   ~~~   ** ... Fan Coil Unit flow = 1.13150 [m3/s].
   **   ~~~   ** ... Fan = Fan:OnOff: ZONE3-3_LAB_23607840 FAN COIL FAN
   **   ~~~   ** ... Fan flow = 0.33000 [m3/s].
   **   ~~~   ** ... Fan Coil Unit flow rate reduced to match the fan flow rate and the simulation continues.
   ** Warning ** GetOAControllerInputs: Controller:MechanicalVentilation="26 ZONE DOAS MECHANICAL VENTILATION CONTROLLER"
   **   ~~~   ** Cannot locate a matching DesignSpecification:ZoneAirDistribution object for Zone="ZONE2-1_MEETING_10_183A7EF1".
   **   ~~~   ** Using default zone air distribution effectiveness of 1.0 for heating and cooling.
   ** Warning ** GetOAControllerInputs: Controller:MechanicalVentilation="26 ZONE DOAS MECHANICAL VENTILATION CONTROLLER"
   **   ~~~   ** Cannot locate a matching DesignSpecification:ZoneAirDistribution object for Zone="ZONE2-1_MEETING_11_CE9D4C2E".
   **   ~~~   ** Using default zone air distribution effectiveness of 1.0 for heating and cooling.
   ** Warning ** GetOAControllerInputs: Controller:MechanicalVentilation="26 ZONE DOAS MECHANICAL VENTILATION CONTROLLER"
   **   ~~~   ** Cannot locate a matching DesignSpecification:ZoneAirDistribution object for Zone="ZONE2-1_MEETING_12_465E56E5".
   **   ~~~   ** Using default zone air distribution effectiveness of 1.0 for heating and cooling.
   ** Warning ** GetOAControllerInputs: Controller:MechanicalVentilation="26 ZONE DOAS MECHANICAL VENTILATION CONTROLLER"
   **   ~~~   ** Cannot locate a matching DesignSpecification:ZoneAirDistribution object for Zone="ZONE2-1_MEETING_13_BAD50B7F".
   **   ~~~   ** Using default zone air distribution effectiveness of 1.0 for heating and cooling.
   ** Warning ** GetOAControllerInputs: Controller:MechanicalVentilation="26 ZONE DOAS MECHANICAL VENTILATION CONTROLLER"
   **   ~~~   ** Cannot locate a matching DesignSpecification:ZoneAirDistribution object for Zone="ZONE2-1_MEETING_14_58C0FE43".
   **   ~~~   ** Using default zone air distribution effectiveness of 1.0 for heating and cooling.
   ** Warning ** GetOAControllerInputs: Controller:MechanicalVentilation="26 ZONE DOAS MECHANICAL VENTILATION CONTROLLER"
   **   ~~~   ** Cannot locate a matching DesignSpecification:ZoneAirDistribution object for Zone="ZONE2-1_MEETING_15_54A628B9".
   **   ~~~   ** Using default zone air distribution effectiveness of 1.0 for heating and cooling.
   ** Warning ** GetOAControllerInputs: Controller:MechanicalVentilation="26 ZONE DOAS MECHANICAL VENTILATION CONTROLLER"
   **   ~~~   ** Cannot locate a matching DesignSpecification:ZoneAirDistribution object for Zone="ZONE2-1_MEETING_16_D44DE828".
   **   ~~~   ** Using default zone air distribution effectiveness of 1.0 for heating and cooling.
   ** Warning ** GetOAControllerInputs: Controller:MechanicalVentilation="26 ZONE DOAS MECHANICAL VENTILATION CONTROLLER"
   **   ~~~   ** Cannot locate a matching DesignSpecification:ZoneAirDistribution object for Zone="ZONE2-1_MEETING_17_AD26577D".
   **   ~~~   ** Using default zone air distribution effectiveness of 1.0 for heating and cooling.
   ** Warning ** GetOAControllerInputs: Controller:MechanicalVentilation="26 ZONE DOAS MECHANICAL VENTILATION CONTROLLER"
   **   ~~~   ** Cannot locate a matching DesignSpecification:ZoneAirDistribution object for Zone="ZONE2-1_MEETING_18_C3FA0FFE".
   **   ~~~   ** Using default zone air distribution effectiveness of 1.0 for heating and cooling.
   ** Warning ** GetOAControllerInputs: Controller:MechanicalVentilation="26 ZONE DOAS MECHANICAL VENTILATION CONTROLLER"
   **   ~~~   ** Cannot locate a matching DesignSpecification:ZoneAirDistribution object for Zone="ZONE2-1_MEETING_19_6762C5BD".
   **   ~~~   ** Using default zone air distribution effectiveness of 1.0 for heating and cooling.
   ** Warning ** GetOAControllerInputs: Controller:MechanicalVentilation="26 ZONE DOAS MECHANICAL VENTILATION CONTROLLER"
   **   ~~~   ** Cannot locate a matching DesignSpecification:ZoneAirDistribution object for Zone="ZONE2-1_MEETING_1_ECA3B0F8".
   **   ~~~   ** Using default zone air distribution effectiveness of 1.0 for heating and cooling.
   ** Warning ** GetOAControllerInputs: Controller:MechanicalVentilation="26 ZONE DOAS MECHANICAL VENTILATION CONTROLLER"
   **   ~~~   ** Cannot locate a matching DesignSpecification:ZoneAirDistribution object for Zone="ZONE2-1_MEETING_20_BB5F5374".
   **   ~~~   ** Using default zone air distribution effectiveness of 1.0 for heating and cooling.
   ** Warning ** GetOAControllerInputs: Controller:MechanicalVentilation="26 ZONE DOAS MECHANICAL VENTILATION CONTROLLER"
   **   ~~~   ** Cannot locate a matching DesignSpecification:ZoneAirDistribution object for Zone="ZONE2-1_MEETING_2_0E073C3E".
   **   ~~~   ** Using default zone air distribution effectiveness of 1.0 for heating and cooling.
   ** Warning ** GetOAControllerInputs: Controller:MechanicalVentilation="26 ZONE DOAS MECHANICAL VENTILATION CONTROLLER"
   **   ~~~   ** Cannot locate a matching DesignSpecification:ZoneAirDistribution object for Zone="ZONE2-1_MEETING_3_3B5615BF".
   **   ~~~   ** Using default zone air distribution effectiveness of 1.0 for heating and cooling.
   ** Warning ** GetOAControllerInputs: Controller:MechanicalVentilation="26 ZONE DOAS MECHANICAL VENTILATION CONTROLLER"
   **   ~~~   ** Cannot locate a matching DesignSpecification:ZoneAirDistribution object for Zone="ZONE2-1_MEETING_4_154BF8BC".
   **   ~~~   ** Using default zone air distribution effectiveness of 1.0 for heating and cooling.
   ** Warning ** GetOAControllerInputs: Controller:MechanicalVentilation="26 ZONE DOAS MECHANICAL VENTILATION CONTROLLER"
   **   ~~~   ** Cannot locate a matching DesignSpecification:ZoneAirDistribution object for Zone="ZONE2-1_MEETING_5_B7A8E0C3".
   **   ~~~   ** Using default zone air distribution effectiveness of 1.0 for heating and cooling.
   ** Warning ** GetOAControllerInputs: Controller:MechanicalVentilation="26 ZONE DOAS MECHANICAL VENTILATION CONTROLLER"
   **   ~~~   ** Cannot locate a matching DesignSpecification:ZoneAirDistribution object for Zone="ZONE2-1_MEETING_6_75394D70".
   **   ~~~   ** Using default zone air distribution effectiveness of 1.0 for heating and cooling.
   ** Warning ** GetOAControllerInputs: Controller:MechanicalVentilation="26 ZONE DOAS MECHANICAL VENTILATION CONTROLLER"
   **   ~~~   ** Cannot locate a matching DesignSpecification:ZoneAirDistribution object for Zone="ZONE2-1_MEETING_7_F519F905".
   **   ~~~   ** Using default zone air distribution effectiveness of 1.0 for heating and cooling.
   ** Warning ** GetOAControllerInputs: Controller:MechanicalVentilation="26 ZONE DOAS MECHANICAL VENTILATION CONTROLLER"
   **   ~~~   ** Cannot locate a matching DesignSpecification:ZoneAirDistribution object for Zone="ZONE2-1_MEETING_8_3DE49B7E".
   **   ~~~   ** Using default zone air distribution effectiveness of 1.0 for heating and cooling.
   ** Warning ** GetOAControllerInputs: Controller:MechanicalVentilation="26 ZONE DOAS MECHANICAL VENTILATION CONTROLLER"
   **   ~~~   ** Cannot locate a matching DesignSpecification:ZoneAirDistribution object for Zone="ZONE2-1_MEETING_9_DC6C83D3".
   **   ~~~   ** Using default zone air distribution effectiveness of 1.0 for heating and cooling.
   ** Warning ** GetOAControllerInputs: Controller:MechanicalVentilation="26 ZONE DOAS MECHANICAL VENTILATION CONTROLLER"
   **   ~~~   ** Cannot locate a matching DesignSpecification:ZoneAirDistribution object for Zone="ZONE3-1_OPENOFFICE_1_9FEE57E6".
   **   ~~~   ** Using default zone air distribution effectiveness of 1.0 for heating and cooling.
   ** Warning ** GetOAControllerInputs: Controller:MechanicalVentilation="26 ZONE DOAS MECHANICAL VENTILATION CONTROLLER"
   **   ~~~   ** Cannot locate a matching DesignSpecification:ZoneAirDistribution object for Zone="ZONE3-1_OPENOFFICE_2_110E1EF3".
   **   ~~~   ** Using default zone air distribution effectiveness of 1.0 for heating and cooling.
   ** Warning ** GetOAControllerInputs: Controller:MechanicalVentilation="26 ZONE DOAS MECHANICAL VENTILATION CONTROLLER"
   **   ~~~   ** Cannot locate a matching DesignSpecification:ZoneAirDistribution object for Zone="ZONE3-1_OPENOFFICE_3_5765BE82".
   **   ~~~   ** Using default zone air distribution effectiveness of 1.0 for heating and cooling.
   ** Warning ** GetOAControllerInputs: Controller:MechanicalVentilation="26 ZONE DOAS MECHANICAL VENTILATION CONTROLLER"
   **   ~~~   ** Cannot locate a matching DesignSpecification:ZoneAirDistribution object for Zone="ZONE3-1_OPENOFFICE_4_DA0DF4CB".
   **   ~~~   ** Using default zone air distribution effectiveness of 1.0 for heating and cooling.
   ** Warning ** GetOAControllerInputs: Controller:MechanicalVentilation="26 ZONE DOAS MECHANICAL VENTILATION CONTROLLER"
   **   ~~~   ** Cannot locate a matching DesignSpecification:ZoneAirDistribution object for Zone="ZONE3-1_OPENOFFICE_5_09EEACDA".
   **   ~~~   ** Using default zone air distribution effectiveness of 1.0 for heating and cooling.
   ** Warning ** GetOAControllerInputs: Controller:MechanicalVentilation="26 ZONE DOAS MECHANICAL VENTILATION CONTROLLER"
   **   ~~~   ** Cannot locate a matching DesignSpecification:ZoneAirDistribution object for Zone="ZONE3-3_LAB_23607840".
   **   ~~~   ** Using default zone air distribution effectiveness of 1.0 for heating and cooling.
   ** Warning ** GetOAControllerInputs: Controller:MechanicalVentilation="1 ZONE DOAS MECHANICAL VENTILATION CONTROLLER"
   **   ~~~   ** Cannot locate a matching DesignSpecification:ZoneAirDistribution object for Zone="ZONE2-2SEMINAR_D779CA07".
   **   ~~~   ** Using default zone air distribution effectiveness of 1.0 for heating and cooling.
   ** Warning ** GetOAControllerInputs: Controller:MechanicalVentilation="35 ZONE DOAS MECHANICAL VENTILATION CONTROLLER"
   **   ~~~   ** Cannot locate a matching DesignSpecification:ZoneAirDistribution object for Zone="ZONE3-2_OPENOFFICE2_10_B9C5C1E2".
   **   ~~~   ** Using default zone air distribution effectiveness of 1.0 for heating and cooling.
   ** Warning ** GetOAControllerInputs: Controller:MechanicalVentilation="35 ZONE DOAS MECHANICAL VENTILATION CONTROLLER"
   **   ~~~   ** Cannot locate a matching DesignSpecification:ZoneAirDistribution object for Zone="ZONE3-2_OPENOFFICE2_11_E9A9F9C3".
   **   ~~~   ** Using default zone air distribution effectiveness of 1.0 for heating and cooling.
   ** Warning ** GetOAControllerInputs: Controller:MechanicalVentilation="35 ZONE DOAS MECHANICAL VENTILATION CONTROLLER"
   **   ~~~   ** Cannot locate a matching DesignSpecification:ZoneAirDistribution object for Zone="ZONE3-2_OPENOFFICE2_12_5847D1C6".
   **   ~~~   ** Using default zone air distribution effectiveness of 1.0 for heating and cooling.
   ** Warning ** GetOAControllerInputs: Controller:MechanicalVentilation="35 ZONE DOAS MECHANICAL VENTILATION CONTROLLER"
   **   ~~~   ** Cannot locate a matching DesignSpecification:ZoneAirDistribution object for Zone="ZONE3-2_OPENOFFICE2_13_3028A123".
   **   ~~~   ** Using default zone air distribution effectiveness of 1.0 for heating and cooling.
   ** Warning ** GetOAControllerInputs: Controller:MechanicalVentilation="35 ZONE DOAS MECHANICAL VENTILATION CONTROLLER"
   **   ~~~   ** Cannot locate a matching DesignSpecification:ZoneAirDistribution object for Zone="ZONE3-2_OPENOFFICE2_14_E2D86807".
   **   ~~~   ** Using default zone air distribution effectiveness of 1.0 for heating and cooling.
   ** Warning ** GetOAControllerInputs: Controller:MechanicalVentilation="35 ZONE DOAS MECHANICAL VENTILATION CONTROLLER"
   **   ~~~   ** Cannot locate a matching DesignSpecification:ZoneAirDistribution object for Zone="ZONE3-2_OPENOFFICE2_15_CC8116DD".
   **   ~~~   ** Using default zone air distribution effectiveness of 1.0 for heating and cooling.
   ** Warning ** GetOAControllerInputs: Controller:MechanicalVentilation="35 ZONE DOAS MECHANICAL VENTILATION CONTROLLER"
   **   ~~~   ** Cannot locate a matching DesignSpecification:ZoneAirDistribution object for Zone="ZONE3-2_OPENOFFICE2_16_ADF85EEC".
   **   ~~~   ** Using default zone air distribution effectiveness of 1.0 for heating and cooling.
   ** Warning ** GetOAControllerInputs: Controller:MechanicalVentilation="35 ZONE DOAS MECHANICAL VENTILATION CONTROLLER"
   **   ~~~   ** Cannot locate a matching DesignSpecification:ZoneAirDistribution object for Zone="ZONE3-2_OPENOFFICE2_17_2225E337".
   **   ~~~   ** Using default zone air distribution effectiveness of 1.0 for heating and cooling.
   ** Warning ** GetOAControllerInputs: Controller:MechanicalVentilation="35 ZONE DOAS MECHANICAL VENTILATION CONTROLLER"
   **   ~~~   ** Cannot locate a matching DesignSpecification:ZoneAirDistribution object for Zone="ZONE3-2_OPENOFFICE2_18_C00ED735".
   **   ~~~   ** Using default zone air distribution effectiveness of 1.0 for heating and cooling.
   ** Warning ** GetOAControllerInputs: Controller:MechanicalVentilation="35 ZONE DOAS MECHANICAL VENTILATION CONTROLLER"
   **   ~~~   ** Cannot locate a matching DesignSpecification:ZoneAirDistribution object for Zone="ZONE3-2_OPENOFFICE2_19_923A5F36".
   **   ~~~   ** Using default zone air distribution effectiveness of 1.0 for heating and cooling.
   ** Warning ** GetOAControllerInputs: Controller:MechanicalVentilation="35 ZONE DOAS MECHANICAL VENTILATION CONTROLLER"
   **   ~~~   ** Cannot locate a matching DesignSpecification:ZoneAirDistribution object for Zone="ZONE3-2_OPENOFFICE2_1_ECE2C271".
   **   ~~~   ** Using default zone air distribution effectiveness of 1.0 for heating and cooling.
   ** Warning ** GetOAControllerInputs: Controller:MechanicalVentilation="35 ZONE DOAS MECHANICAL VENTILATION CONTROLLER"
   **   ~~~   ** Cannot locate a matching DesignSpecification:ZoneAirDistribution object for Zone="ZONE3-2_OPENOFFICE2_2_5518A8FC".
   **   ~~~   ** Using default zone air distribution effectiveness of 1.0 for heating and cooling.
   ** Warning ** GetOAControllerInputs: Controller:MechanicalVentilation="35 ZONE DOAS MECHANICAL VENTILATION CONTROLLER"
   **   ~~~   ** Cannot locate a matching DesignSpecification:ZoneAirDistribution object for Zone="ZONE3-2_OPENOFFICE2_3_C814639C".
   **   ~~~   ** Using default zone air distribution effectiveness of 1.0 for heating and cooling.
   ** Warning ** GetOAControllerInputs: Controller:MechanicalVentilation="35 ZONE DOAS MECHANICAL VENTILATION CONTROLLER"
   **   ~~~   ** Cannot locate a matching DesignSpecification:ZoneAirDistribution object for Zone="ZONE3-2_OPENOFFICE2_4_DF3F73FF".
   **   ~~~   ** Using default zone air distribution effectiveness of 1.0 for heating and cooling.
   ** Warning ** GetOAControllerInputs: Controller:MechanicalVentilation="35 ZONE DOAS MECHANICAL VENTILATION CONTROLLER"
   **   ~~~   ** Cannot locate a matching DesignSpecification:ZoneAirDistribution object for Zone="ZONE3-2_OPENOFFICE2_5_2A12DE25".
   **   ~~~   ** Using default zone air distribution effectiveness of 1.0 for heating and cooling.
   ** Warning ** GetOAControllerInputs: Controller:MechanicalVentilation="35 ZONE DOAS MECHANICAL VENTILATION CONTROLLER"
   **   ~~~   ** Cannot locate a matching DesignSpecification:ZoneAirDistribution object for Zone="ZONE3-2_OPENOFFICE2_6_9B68752E".
   **   ~~~   ** Using default zone air distribution effectiveness of 1.0 for heating and cooling.
   ** Warning ** GetOAControllerInputs: Controller:MechanicalVentilation="35 ZONE DOAS MECHANICAL VENTILATION CONTROLLER"
   **   ~~~   ** Cannot locate a matching DesignSpecification:ZoneAirDistribution object for Zone="ZONE3-2_OPENOFFICE2_7_76C03369".
   **   ~~~   ** Using default zone air distribution effectiveness of 1.0 for heating and cooling.
   ** Warning ** GetOAControllerInputs: Controller:MechanicalVentilation="35 ZONE DOAS MECHANICAL VENTILATION CONTROLLER"
   **   ~~~   ** Cannot locate a matching DesignSpecification:ZoneAirDistribution object for Zone="ZONE3-2_OPENOFFICE2_8_104F9EB4".
   **   ~~~   ** Using default zone air distribution effectiveness of 1.0 for heating and cooling.
   ** Warning ** GetOAControllerInputs: Controller:MechanicalVentilation="35 ZONE DOAS MECHANICAL VENTILATION CONTROLLER"
   **   ~~~   ** Cannot locate a matching DesignSpecification:ZoneAirDistribution object for Zone="ZONE3-2_OPENOFFICE2_9_6C3225F9".
   **   ~~~   ** Using default zone air distribution effectiveness of 1.0 for heating and cooling.
   ** Warning ** Output:Meter:MeterFileOnly: invalid Key Name="HEATING:ELECTRICITY" - not found.
   ************* Testing Individual Branch Integrity
   ************* All Branches passed integrity testing
   ************* Testing Individual Supply Air Path Integrity
   ************* All Supply Air Paths passed integrity testing
   ************* Testing Individual Return Air Path Integrity
   ************* All Return Air Paths passed integrity testing
   ************* No node connection errors were found.
   ** Warning ** CoolingTower:VariableSpeed "PROPELLER OR AXIAL VARIABLE SPEED FAN OPEN COOLING TOWER" - Tower range temperature is outside model boundaries at 1.81E-002.
   **   ~~~   **  ...Valid range = 1.11 to 11.11. Occurrence info = EDINBURGH.AP ANN CLG .4% CONDNS DB=>MWB HVAC Sizing Pass 1, 07/21 00:00 - 00:05
   **   ~~~   **  ...Tower range temperature passed to the model = 1.80984E-002
   **   ~~~   **  ...Range temperatures outside model boundaries may not adversely affect tower performance.
   **   ~~~   **  ...This is not an unexpected occurrence when simulating actual conditions.
   ** Warning ** HeatExchanger:AirToAir:SensibleAndLatent "AHU32_HEAT RECOVERY UNIT"
   **   ~~~   ** Average air volume flow rate is <50% or >130% of the nominal HX supply air volume flow rate.
   **   ~~~   ** Air volume flow rate ratio = 4.972E-002. Environment=EDINBURGH.AP ANN CLG .4% CONDNS DB=>MWB HVAC Sizing Pass 1, at Simulation time=07/21 08:00 - 08:10
   ** Warning ** HeatExchanger:AirToAir:SensibleAndLatent "AHU33_HEAT RECOVERY UNIT"
   **   ~~~   ** Average air volume flow rate is <50% or >130% of the nominal HX supply air volume flow rate.
   **   ~~~   ** Air volume flow rate ratio = 5.543E-002. Environment=EDINBURGH.AP ANN CLG .4% CONDNS DB=>MWB HVAC Sizing Pass 1, at Simulation time=07/21 08:00 - 08:10
   ** Warning ** CoolingTower:VariableSpeed "PROPELLER OR AXIAL VARIABLE SPEED FAN OPEN COOLING TOWER" - Tower approach temperature is outside model boundaries at 11.12.
   **   ~~~   **  ...Valid range = 1.11 to 11.11. Occurrence info = EDINBURGH.AP APRIL .4% CONDNS DB=>MCWB HVAC Sizing Pass 1, 04/21 00:40 - 00:50
   **   ~~~   **  ...Tower approach temperature passed to the model = 11.11916
   **   ~~~   **  ...Approach temperatures outside model boundaries may not adversely affect tower performance.
   **   ~~~   **  ...This is not an unexpected occurrence when simulating actual conditions.
   ************* Beginning Simulation
   ** Warning ** CoolingTower:VariableSpeed "PROPELLER OR AXIAL VARIABLE SPEED FAN OPEN COOLING TOWER" - Inlet air wet-bulb temperature is outside model boundaries at -1.12.
   **   ~~~   **  ...Valid range = -1.00 to 26.67. Occurrence info = RUN PERIOD 1, 01/02 09:40 - 09:43
   **   ~~~   **  ...Inlet air wet-bulb temperature passed to the model = -1.000000
   **   ~~~   **  ...Wet-bulb temperatures outside model boundaries may not adversely affect tower performance.
   ** Warning ** CoolingTower:VariableSpeed "PROPELLER OR AXIAL VARIABLE SPEED FAN OPEN COOLING TOWER" - Inlet air wet-bulb temperature is outside model boundaries at -1.12.
   **   ~~~   **  ...Valid range = -1.00 to 26.67. Occurrence info = RUN PERIOD 1, 01/02 09:43 - 09:47
   **   ~~~   **  ...Inlet air wet-bulb temperature passed to the model = -1.000000
   **   ~~~   **  ...Wet-bulb temperatures outside model boundaries may not adversely affect tower performance.
   ** Warning ** CoolingTower:VariableSpeed "PROPELLER OR AXIAL VARIABLE SPEED FAN OPEN COOLING TOWER" - Inlet air wet-bulb temperature is outside model boundaries at -2.11.
   **   ~~~   **  ...Valid range = -1.00 to 26.67. Occurrence info = RUN PERIOD 1, 01/16 09:30 - 09:40
   **   ~~~   **  ...Inlet air wet-bulb temperature passed to the model = -1.000000
   **   ~~~   **  ...Wet-bulb temperatures outside model boundaries may not adversely affect tower performance.
   ** Warning ** CoolingTower:VariableSpeed "PROPELLER OR AXIAL VARIABLE SPEED FAN OPEN COOLING TOWER" - Inlet air wet-bulb temperature is outside model boundaries at -1.94.
   **   ~~~   **  ...Valid range = -1.00 to 26.67. Occurrence info = RUN PERIOD 1, 01/16 09:47 - 09:50
   **   ~~~   **  ...Inlet air wet-bulb temperature passed to the model = -1.000000
   **   ~~~   **  ...Wet-bulb temperatures outside model boundaries may not adversely affect tower performance.
   ** Warning ** CoolingTower:VariableSpeed "PROPELLER OR AXIAL VARIABLE SPEED FAN OPEN COOLING TOWER" - Inlet air wet-bulb temperature is outside model boundaries at -1.78.
   **   ~~~   **  ...Valid range = -1.00 to 26.67. Occurrence info = RUN PERIOD 1, 01/16 09:57 - 10:00
   **   ~~~   **  ...Inlet air wet-bulb temperature passed to the model = -1.000000
   **   ~~~   **  ...Wet-bulb temperatures outside model boundaries may not adversely affect tower performance.
   ** Warning ** The resource referenced by LifeCycleCost:UsePriceEscalation= "U.S. AVG  COMMERCIAL-ELECTRICITY" has no energy cost. 
   **   ~~~   ** ... It is likely that the wrong resource is used. The resource should match the meter used in Utility:Tariff.
   ** Warning ** The resource referenced by LifeCycleCost:UsePriceEscalation= "U.S. AVG  COMMERCIAL-DISTILLATE OIL" has no energy cost. 
   **   ~~~   ** ... It is likely that the wrong resource is used. The resource should match the meter used in Utility:Tariff.
   ** Warning ** The resource referenced by LifeCycleCost:UsePriceEscalation= "U.S. AVG  COMMERCIAL-RESIDUAL OIL" has no energy cost. 
   **   ~~~   ** ... It is likely that the wrong resource is used. The resource should match the meter used in Utility:Tariff.
   ** Warning ** The resource referenced by LifeCycleCost:UsePriceEscalation= "U.S. AVG  COMMERCIAL-NATURAL GAS" has no energy cost. 
   **   ~~~   ** ... It is likely that the wrong resource is used. The resource should match the meter used in Utility:Tariff.
   ** Warning ** The resource referenced by LifeCycleCost:UsePriceEscalation= "U.S. AVG  COMMERCIAL-COAL" has no energy cost. 
   **   ~~~   ** ... It is likely that the wrong resource is used. The resource should match the meter used in Utility:Tariff.
   ************* Simulation Error Summary *************
   ** Warning ** The following Report Variables were requested but not generated -- check.rdd file
   **   ~~~   ** Either the IDF did not contain these elements, the variable name is misspelled,
   **   ~~~   ** or the requested variable is an advanced output which requires Output : Diagnostics, DisplayAdvancedReportVariables;
   ************* Key=*, VarName=ZONE AIR HEAT BALANCE DEVIATION RATE, Frequency=Hourly
   ************* Key=*, VarName=HEATING COIL TOTAL HEATING ENERGY, Frequency=Hourly
   ************* There are 1 unused objects in input.
   ************* Use Output:Diagnostics,DisplayUnusedObjects; to see them.
   ************* There are 2 unused schedules in input.
   ************* There are 2 unused week schedules in input.
   ************* There are 199 unused day schedules in input.
   ************* Use Output:Diagnostics,DisplayUnusedSchedules; to see them.
   ** Warning ** Native CSV output requested in input file, but running ReadVarsESO due to command line argument.
   ** Warning ** This will overwrite the native CSV output.
   *************
   ************* ===== Recurring Error Summary =====
   ************* The following recurring error messages occurred.
   *************
   *************  ** Warning ** CoolingTower:VariableSpeed "PROPELLER OR AXIAL VARIABLE SPEED FAN OPEN COOLING TOWER" - Tower range temperature is out of range error continues...
   *************  **   ~~~   **   This error occurred 38642 total times;
   *************  **   ~~~   **   during Warmup 0 times;
   *************  **   ~~~   **   during Sizing 0 times.
   *************  **   ~~~   **   Max=1.111099  Min=0.000012
   *************
   *************  ** Warning ** HeatExchanger:AirToAir:SensibleAndLatent "AHU32_HEAT RECOVERY UNIT":  Average air volume flow rate is <50% or >130% warning continues. Air flow rate ratio statistics follow.
   *************  **   ~~~   **   This error occurred 315795 total times;
   *************  **   ~~~   **   during Warmup 0 times;
   *************  **   ~~~   **   during Sizing 0 times.
   *************  **   ~~~   **   Max=0.049736  Min=0.049712
   *************
   *************  ** Warning ** HeatExchanger:AirToAir:SensibleAndLatent "AHU33_HEAT RECOVERY UNIT":  Average air volume flow rate is <50% or >130% warning continues. Air flow rate ratio statistics follow.
   *************  **   ~~~   **   This error occurred 300729 total times;
   *************  **   ~~~   **   during Warmup 0 times;
   *************  **   ~~~   **   during Sizing 0 times.
   *************  **   ~~~   **   Max=0.055452  Min=0.055425
   *************
   *************  ** Warning ** CoolingTower:VariableSpeed "PROPELLER OR AXIAL VARIABLE SPEED FAN OPEN COOLING TOWER" - Tower approach temperature is out of range error continues...
   *************  **   ~~~   **   This error occurred 25995 total times;
   *************  **   ~~~   **   during Warmup 0 times;
   *************  **   ~~~   **   during Sizing 0 times.
   *************  **   ~~~   **   Max=23.446739  Min=11.111111
   *************
   *************  ** Warning ** CoolingTower:VariableSpeed "PROPELLER OR AXIAL VARIABLE SPEED FAN OPEN COOLING TOWER" - Inlet air wet-bulb temperature is out of range error continues...
   *************  **   ~~~   **   This error occurred 153 total times;
   *************  **   ~~~   **   during Warmup 0 times;
   *************  **   ~~~   **   during Sizing 0 times.
   *************  **   ~~~   **   Max=-1.001062  Min=-2.335628
   *************
   *************
   ************* ===== Final Error Summary =====
   ************* The following error categories occurred.  Consider correcting or noting.
   ************* Nominally Unused Constructions
   ************* ..The nominally unused constructions warning is provided to alert you to potential conditions that can cause
   ************* ..extra time during simulation. Each construction is calculated by the algorithm indicated in the HeatBalanceAlgorithm
   ************* ..object. You may remove the constructions indicated (when you use the DisplayExtraWarnings option).
   *************
   ************* EnergyPlus Warmup Error Summary. During Warmup: 0 Warning; 0 Severe Errors.
   ************* EnergyPlus Sizing Error Summary. During Sizing: 97 Warning; 0 Severe Errors.
   ************* EnergyPlus Completed Successfully-- 681513 Warning; 7 Severe Errors; Elapsed Time=00hr 05min 18.85sec
