! Program Version,EnergyPlus, Version 23.2.0-7636e6b3e9, YMD=2025.10.13 17:28,
! Output:Meter Objects (applicable to this run)
Output:Meter,Electricity:Facility,hourly; !- [J]
Output:Meter:Cumulative,Electricity:Facility,hourly; !- [J]
Output:Meter,Electricity:Building,hourly; !- [J]
Output:Meter:Cumulative,Electricity:Building,hourly; !- [J]
Output:Meter,Electricity:Zone:ZONE1-1_ATRIUM_6A8D9A73,hourly; !- [J]
Output:Meter:Cumulative,Electricity:Zone:ZONE1-1_ATRIUM_6A8D9A73,hourly; !- [J]
Output:Meter,Electricity:SpaceType:1-1_ATRIUM_BR_,hourly; !- [J]
Output:Meter:Cumulative,Electricity:SpaceType:1-1_ATRIUM_BR_,hourly; !- [J]
Output:Meter,InteriorLights:Electricity,hourly; !- [J]
Output:Meter:Cumulative,InteriorLights:Electricity,hourly; !- [J]
Output:Meter,InteriorLights:Electricity:Zone:ZONE1-1_ATRIUM_6A8D9A73,hourly; !- [J]
Output:Meter:Cumulative,InteriorLights:Electricity:Zone:ZONE1-1_ATRIUM_6A8D9A73,hourly; !- [J]
Output:Meter,InteriorLights:Electricity:SpaceType:1-1_ATRIUM_BR_,hourly; !- [J]
Output:Meter:Cumulative,InteriorLights:Electricity:SpaceType:1-1_ATRIUM_BR_,hourly; !- [J]
Output:Meter,General:InteriorLights:Electricity,hourly; !- [J]
Output:Meter:Cumulative,General:InteriorLights:Electricity,hourly; !- [J]
Output:Meter,General:InteriorLights:Electricity:Zone:ZONE1-1_ATRIUM_6A8D9A73,hourly; !- [J]
Output:Meter:Cumulative,General:InteriorLights:Electricity:Zone:ZONE1-1_ATRIUM_6A8D9A73,hourly; !- [J]
Output:Meter,General:InteriorLights:Electricity:SpaceType:1-1_ATRIUM_BR_,hourly; !- [J]
Output:Meter:Cumulative,General:InteriorLights:Electricity:SpaceType:1-1_ATRIUM_BR_,hourly; !- [J]
Output:Meter,Electricity:Zone:ZONE1-2_CAFE_C039BA0E,hourly; !- [J]
Output:Meter:Cumulative,Electricity:Zone:ZONE1-2_CAFE_C039BA0E,hourly; !- [J]
Output:Meter,Electricity:SpaceType:1-2_CAFE_BR_,hourly; !- [J]
Output:Meter:Cumulative,Electricity:SpaceType:1-2_CAFE_BR_,hourly; !- [J]
Output:Meter,InteriorLights:Electricity:Zone:ZONE1-2_CAFE_C039BA0E,hourly; !- [J]
Output:Meter:Cumulative,InteriorLights:Electricity:Zone:ZONE1-2_CAFE_C039BA0E,hourly; !- [J]
Output:Meter,InteriorLights:Electricity:SpaceType:1-2_CAFE_BR_,hourly; !- [J]
Output:Meter:Cumulative,InteriorLights:Electricity:SpaceType:1-2_CAFE_BR_,hourly; !- [J]
Output:Meter,General:InteriorLights:Electricity:Zone:ZONE1-2_CAFE_C039BA0E,hourly; !- [J]
Output:Meter:Cumulative,General:InteriorLights:Electricity:Zone:ZONE1-2_CAFE_C039BA0E,hourly; !- [J]
Output:Meter,General:InteriorLights:Electricity:SpaceType:1-2_CAFE_BR_,hourly; !- [J]
Output:Meter:Cumulative,General:InteriorLights:Electricity:SpaceType:1-2_CAFE_BR_,hourly; !- [J]
Output:Meter,Electricity:Zone:ZONE2-1_MEETING_12_465E56E5,hourly; !- [J]
Output:Meter:Cumulative,Electricity:Zone:ZONE2-1_MEETING_12_465E56E5,hourly; !- [J]
Output:Meter,Electricity:SpaceType:2-1_MEETING_BR_,hourly; !- [J]
Output:Meter:Cumulative,Electricity:SpaceType:2-1_MEETING_BR_,hourly; !- [J]
Output:Meter,InteriorLights:Electricity:Zone:ZONE2-1_MEETING_12_465E56E5,hourly; !- [J]
Output:Meter:Cumulative,InteriorLights:Electricity:Zone:ZONE2-1_MEETING_12_465E56E5,hourly; !- [J]
Output:Meter,InteriorLights:Electricity:SpaceType:2-1_MEETING_BR_,hourly; !- [J]
Output:Meter:Cumulative,InteriorLights:Electricity:SpaceType:2-1_MEETING_BR_,hourly; !- [J]
Output:Meter,General:InteriorLights:Electricity:Zone:ZONE2-1_MEETING_12_465E56E5,hourly; !- [J]
Output:Meter:Cumulative,General:InteriorLights:Electricity:Zone:ZONE2-1_MEETING_12_465E56E5,hourly; !- [J]
Output:Meter,General:InteriorLights:Electricity:SpaceType:2-1_MEETING_BR_,hourly; !- [J]
Output:Meter:Cumulative,General:InteriorLights:Electricity:SpaceType:2-1_MEETING_BR_,hourly; !- [J]
Output:Meter,Electricity:Zone:ZONE2-1_MEETING_5_B7A8E0C3,hourly; !- [J]
Output:Meter:Cumulative,Electricity:Zone:ZONE2-1_MEETING_5_B7A8E0C3,hourly; !- [J]
Output:Meter,InteriorLights:Electricity:Zone:ZONE2-1_MEETING_5_B7A8E0C3,hourly; !- [J]
Output:Meter:Cumulative,InteriorLights:Electricity:Zone:ZONE2-1_MEETING_5_B7A8E0C3,hourly; !- [J]
Output:Meter,General:InteriorLights:Electricity:Zone:ZONE2-1_MEETING_5_B7A8E0C3,hourly; !- [J]
Output:Meter:Cumulative,General:InteriorLights:Electricity:Zone:ZONE2-1_MEETING_5_B7A8E0C3,hourly; !- [J]
Output:Meter,Electricity:Zone:ZONE2-1_MEETING_10_183A7EF1,hourly; !- [J]
Output:Meter:Cumulative,Electricity:Zone:ZONE2-1_MEETING_10_183A7EF1,hourly; !- [J]
Output:Meter,InteriorLights:Electricity:Zone:ZONE2-1_MEETING_10_183A7EF1,hourly; !- [J]
Output:Meter:Cumulative,InteriorLights:Electricity:Zone:ZONE2-1_MEETING_10_183A7EF1,hourly; !- [J]
Output:Meter,General:InteriorLights:Electricity:Zone:ZONE2-1_MEETING_10_183A7EF1,hourly; !- [J]
Output:Meter:Cumulative,General:InteriorLights:Electricity:Zone:ZONE2-1_MEETING_10_183A7EF1,hourly; !- [J]
Output:Meter,Electricity:Zone:ZONE2-1_MEETING_1_ECA3B0F8,hourly; !- [J]
Output:Meter:Cumulative,Electricity:Zone:ZONE2-1_MEETING_1_ECA3B0F8,hourly; !- [J]
Output:Meter,InteriorLights:Electricity:Zone:ZONE2-1_MEETING_1_ECA3B0F8,hourly; !- [J]
Output:Meter:Cumulative,InteriorLights:Electricity:Zone:ZONE2-1_MEETING_1_ECA3B0F8,hourly; !- [J]
Output:Meter,General:InteriorLights:Electricity:Zone:ZONE2-1_MEETING_1_ECA3B0F8,hourly; !- [J]
Output:Meter:Cumulative,General:InteriorLights:Electricity:Zone:ZONE2-1_MEETING_1_ECA3B0F8,hourly; !- [J]
Output:Meter,Electricity:Zone:ZONE2-1_MEETING_2_0E073C3E,hourly; !- [J]
Output:Meter:Cumulative,Electricity:Zone:ZONE2-1_MEETING_2_0E073C3E,hourly; !- [J]
Output:Meter,InteriorLights:Electricity:Zone:ZONE2-1_MEETING_2_0E073C3E,hourly; !- [J]
Output:Meter:Cumulative,InteriorLights:Electricity:Zone:ZONE2-1_MEETING_2_0E073C3E,hourly; !- [J]
Output:Meter,General:InteriorLights:Electricity:Zone:ZONE2-1_MEETING_2_0E073C3E,hourly; !- [J]
Output:Meter:Cumulative,General:InteriorLights:Electricity:Zone:ZONE2-1_MEETING_2_0E073C3E,hourly; !- [J]
Output:Meter,Electricity:Zone:ZONE2-1_MEETING_3_3B5615BF,hourly; !- [J]
Output:Meter:Cumulative,Electricity:Zone:ZONE2-1_MEETING_3_3B5615BF,hourly; !- [J]
Output:Meter,InteriorLights:Electricity:Zone:ZONE2-1_MEETING_3_3B5615BF,hourly; !- [J]
Output:Meter:Cumulative,InteriorLights:Electricity:Zone:ZONE2-1_MEETING_3_3B5615BF,hourly; !- [J]
Output:Meter,General:InteriorLights:Electricity:Zone:ZONE2-1_MEETING_3_3B5615BF,hourly; !- [J]
Output:Meter:Cumulative,General:InteriorLights:Electricity:Zone:ZONE2-1_MEETING_3_3B5615BF,hourly; !- [J]
Output:Meter,Electricity:Zone:ZONE2-1_MEETING_4_154BF8BC,hourly; !- [J]
Output:Meter:Cumulative,Electricity:Zone:ZONE2-1_MEETING_4_154BF8BC,hourly; !- [J]
Output:Meter,InteriorLights:Electricity:Zone:ZONE2-1_MEETING_4_154BF8BC,hourly; !- [J]
Output:Meter:Cumulative,InteriorLights:Electricity:Zone:ZONE2-1_MEETING_4_154BF8BC,hourly; !- [J]
Output:Meter,General:InteriorLights:Electricity:Zone:ZONE2-1_MEETING_4_154BF8BC,hourly; !- [J]
Output:Meter:Cumulative,General:InteriorLights:Electricity:Zone:ZONE2-1_MEETING_4_154BF8BC,hourly; !- [J]
Output:Meter,Electricity:Zone:ZONE2-1_MEETING_6_75394D70,hourly; !- [J]
Output:Meter:Cumulative,Electricity:Zone:ZONE2-1_MEETING_6_75394D70,hourly; !- [J]
Output:Meter,InteriorLights:Electricity:Zone:ZONE2-1_MEETING_6_75394D70,hourly; !- [J]
Output:Meter:Cumulative,InteriorLights:Electricity:Zone:ZONE2-1_MEETING_6_75394D70,hourly; !- [J]
Output:Meter,General:InteriorLights:Electricity:Zone:ZONE2-1_MEETING_6_75394D70,hourly; !- [J]
Output:Meter:Cumulative,General:InteriorLights:Electricity:Zone:ZONE2-1_MEETING_6_75394D70,hourly; !- [J]
Output:Meter,Electricity:Zone:ZONE2-1_MEETING_7_F519F905,hourly; !- [J]
Output:Meter:Cumulative,Electricity:Zone:ZONE2-1_MEETING_7_F519F905,hourly; !- [J]
Output:Meter,InteriorLights:Electricity:Zone:ZONE2-1_MEETING_7_F519F905,hourly; !- [J]
Output:Meter:Cumulative,InteriorLights:Electricity:Zone:ZONE2-1_MEETING_7_F519F905,hourly; !- [J]
Output:Meter,General:InteriorLights:Electricity:Zone:ZONE2-1_MEETING_7_F519F905,hourly; !- [J]
Output:Meter:Cumulative,General:InteriorLights:Electricity:Zone:ZONE2-1_MEETING_7_F519F905,hourly; !- [J]
Output:Meter,Electricity:Zone:ZONE2-1_MEETING_8_3DE49B7E,hourly; !- [J]
Output:Meter:Cumulative,Electricity:Zone:ZONE2-1_MEETING_8_3DE49B7E,hourly; !- [J]
Output:Meter,InteriorLights:Electricity:Zone:ZONE2-1_MEETING_8_3DE49B7E,hourly; !- [J]
Output:Meter:Cumulative,InteriorLights:Electricity:Zone:ZONE2-1_MEETING_8_3DE49B7E,hourly; !- [J]
Output:Meter,General:InteriorLights:Electricity:Zone:ZONE2-1_MEETING_8_3DE49B7E,hourly; !- [J]
Output:Meter:Cumulative,General:InteriorLights:Electricity:Zone:ZONE2-1_MEETING_8_3DE49B7E,hourly; !- [J]
Output:Meter,Electricity:Zone:ZONE2-1_MEETING_9_DC6C83D3,hourly; !- [J]
Output:Meter:Cumulative,Electricity:Zone:ZONE2-1_MEETING_9_DC6C83D3,hourly; !- [J]
Output:Meter,InteriorLights:Electricity:Zone:ZONE2-1_MEETING_9_DC6C83D3,hourly; !- [J]
Output:Meter:Cumulative,InteriorLights:Electricity:Zone:ZONE2-1_MEETING_9_DC6C83D3,hourly; !- [J]
Output:Meter,General:InteriorLights:Electricity:Zone:ZONE2-1_MEETING_9_DC6C83D3,hourly; !- [J]
Output:Meter:Cumulative,General:InteriorLights:Electricity:Zone:ZONE2-1_MEETING_9_DC6C83D3,hourly; !- [J]
Output:Meter,Electricity:Zone:ZONE2-1_MEETING_11_CE9D4C2E,hourly; !- [J]
Output:Meter:Cumulative,Electricity:Zone:ZONE2-1_MEETING_11_CE9D4C2E,hourly; !- [J]
Output:Meter,InteriorLights:Electricity:Zone:ZONE2-1_MEETING_11_CE9D4C2E,hourly; !- [J]
Output:Meter:Cumulative,InteriorLights:Electricity:Zone:ZONE2-1_MEETING_11_CE9D4C2E,hourly; !- [J]
Output:Meter,General:InteriorLights:Electricity:Zone:ZONE2-1_MEETING_11_CE9D4C2E,hourly; !- [J]
Output:Meter:Cumulative,General:InteriorLights:Electricity:Zone:ZONE2-1_MEETING_11_CE9D4C2E,hourly; !- [J]
Output:Meter,Electricity:Zone:ZONE2-1_MEETING_13_BAD50B7F,hourly; !- [J]
Output:Meter:Cumulative,Electricity:Zone:ZONE2-1_MEETING_13_BAD50B7F,hourly; !- [J]
Output:Meter,InteriorLights:Electricity:Zone:ZONE2-1_MEETING_13_BAD50B7F,hourly; !- [J]
Output:Meter:Cumulative,InteriorLights:Electricity:Zone:ZONE2-1_MEETING_13_BAD50B7F,hourly; !- [J]
Output:Meter,General:InteriorLights:Electricity:Zone:ZONE2-1_MEETING_13_BAD50B7F,hourly; !- [J]
Output:Meter:Cumulative,General:InteriorLights:Electricity:Zone:ZONE2-1_MEETING_13_BAD50B7F,hourly; !- [J]
Output:Meter,Electricity:Zone:ZONE2-1_MEETING_14_58C0FE43,hourly; !- [J]
Output:Meter:Cumulative,Electricity:Zone:ZONE2-1_MEETING_14_58C0FE43,hourly; !- [J]
Output:Meter,InteriorLights:Electricity:Zone:ZONE2-1_MEETING_14_58C0FE43,hourly; !- [J]
Output:Meter:Cumulative,InteriorLights:Electricity:Zone:ZONE2-1_MEETING_14_58C0FE43,hourly; !- [J]
Output:Meter,General:InteriorLights:Electricity:Zone:ZONE2-1_MEETING_14_58C0FE43,hourly; !- [J]
Output:Meter:Cumulative,General:InteriorLights:Electricity:Zone:ZONE2-1_MEETING_14_58C0FE43,hourly; !- [J]
Output:Meter,Electricity:Zone:ZONE2-1_MEETING_15_54A628B9,hourly; !- [J]
Output:Meter:Cumulative,Electricity:Zone:ZONE2-1_MEETING_15_54A628B9,hourly; !- [J]
Output:Meter,InteriorLights:Electricity:Zone:ZONE2-1_MEETING_15_54A628B9,hourly; !- [J]
Output:Meter:Cumulative,InteriorLights:Electricity:Zone:ZONE2-1_MEETING_15_54A628B9,hourly; !- [J]
Output:Meter,General:InteriorLights:Electricity:Zone:ZONE2-1_MEETING_15_54A628B9,hourly; !- [J]
Output:Meter:Cumulative,General:InteriorLights:Electricity:Zone:ZONE2-1_MEETING_15_54A628B9,hourly; !- [J]
Output:Meter,Electricity:Zone:ZONE2-1_MEETING_16_D44DE828,hourly; !- [J]
Output:Meter:Cumulative,Electricity:Zone:ZONE2-1_MEETING_16_D44DE828,hourly; !- [J]
Output:Meter,InteriorLights:Electricity:Zone:ZONE2-1_MEETING_16_D44DE828,hourly; !- [J]
Output:Meter:Cumulative,InteriorLights:Electricity:Zone:ZONE2-1_MEETING_16_D44DE828,hourly; !- [J]
Output:Meter,General:InteriorLights:Electricity:Zone:ZONE2-1_MEETING_16_D44DE828,hourly; !- [J]
Output:Meter:Cumulative,General:InteriorLights:Electricity:Zone:ZONE2-1_MEETING_16_D44DE828,hourly; !- [J]
Output:Meter,Electricity:Zone:ZONE2-1_MEETING_17_AD26577D,hourly; !- [J]
Output:Meter:Cumulative,Electricity:Zone:ZONE2-1_MEETING_17_AD26577D,hourly; !- [J]
Output:Meter,InteriorLights:Electricity:Zone:ZONE2-1_MEETING_17_AD26577D,hourly; !- [J]
Output:Meter:Cumulative,InteriorLights:Electricity:Zone:ZONE2-1_MEETING_17_AD26577D,hourly; !- [J]
Output:Meter,General:InteriorLights:Electricity:Zone:ZONE2-1_MEETING_17_AD26577D,hourly; !- [J]
Output:Meter:Cumulative,General:InteriorLights:Electricity:Zone:ZONE2-1_MEETING_17_AD26577D,hourly; !- [J]
Output:Meter,Electricity:Zone:ZONE2-1_MEETING_18_C3FA0FFE,hourly; !- [J]
Output:Meter:Cumulative,Electricity:Zone:ZONE2-1_MEETING_18_C3FA0FFE,hourly; !- [J]
Output:Meter,InteriorLights:Electricity:Zone:ZONE2-1_MEETING_18_C3FA0FFE,hourly; !- [J]
Output:Meter:Cumulative,InteriorLights:Electricity:Zone:ZONE2-1_MEETING_18_C3FA0FFE,hourly; !- [J]
Output:Meter,General:InteriorLights:Electricity:Zone:ZONE2-1_MEETING_18_C3FA0FFE,hourly; !- [J]
Output:Meter:Cumulative,General:InteriorLights:Electricity:Zone:ZONE2-1_MEETING_18_C3FA0FFE,hourly; !- [J]
Output:Meter,Electricity:Zone:ZONE2-1_MEETING_19_6762C5BD,hourly; !- [J]
Output:Meter:Cumulative,Electricity:Zone:ZONE2-1_MEETING_19_6762C5BD,hourly; !- [J]
Output:Meter,InteriorLights:Electricity:Zone:ZONE2-1_MEETING_19_6762C5BD,hourly; !- [J]
Output:Meter:Cumulative,InteriorLights:Electricity:Zone:ZONE2-1_MEETING_19_6762C5BD,hourly; !- [J]
Output:Meter,General:InteriorLights:Electricity:Zone:ZONE2-1_MEETING_19_6762C5BD,hourly; !- [J]
Output:Meter:Cumulative,General:InteriorLights:Electricity:Zone:ZONE2-1_MEETING_19_6762C5BD,hourly; !- [J]
Output:Meter,Electricity:Zone:ZONE2-1_MEETING_20_BB5F5374,hourly; !- [J]
Output:Meter:Cumulative,Electricity:Zone:ZONE2-1_MEETING_20_BB5F5374,hourly; !- [J]
Output:Meter,InteriorLights:Electricity:Zone:ZONE2-1_MEETING_20_BB5F5374,hourly; !- [J]
Output:Meter:Cumulative,InteriorLights:Electricity:Zone:ZONE2-1_MEETING_20_BB5F5374,hourly; !- [J]
Output:Meter,General:InteriorLights:Electricity:Zone:ZONE2-1_MEETING_20_BB5F5374,hourly; !- [J]
Output:Meter:Cumulative,General:InteriorLights:Electricity:Zone:ZONE2-1_MEETING_20_BB5F5374,hourly; !- [J]
Output:Meter,Electricity:Zone:ZONE2-2SEMINAR_D779CA07,hourly; !- [J]
Output:Meter:Cumulative,Electricity:Zone:ZONE2-2SEMINAR_D779CA07,hourly; !- [J]
Output:Meter,Electricity:SpaceType:2-2_SEMINAR_BR_,hourly; !- [J]
Output:Meter:Cumulative,Electricity:SpaceType:2-2_SEMINAR_BR_,hourly; !- [J]
Output:Meter,InteriorLights:Electricity:Zone:ZONE2-2SEMINAR_D779CA07,hourly; !- [J]
Output:Meter:Cumulative,InteriorLights:Electricity:Zone:ZONE2-2SEMINAR_D779CA07,hourly; !- [J]
Output:Meter,InteriorLights:Electricity:SpaceType:2-2_SEMINAR_BR_,hourly; !- [J]
Output:Meter:Cumulative,InteriorLights:Electricity:SpaceType:2-2_SEMINAR_BR_,hourly; !- [J]
Output:Meter,General:InteriorLights:Electricity:Zone:ZONE2-2SEMINAR_D779CA07,hourly; !- [J]
Output:Meter:Cumulative,General:InteriorLights:Electricity:Zone:ZONE2-2SEMINAR_D779CA07,hourly; !- [J]
Output:Meter,General:InteriorLights:Electricity:SpaceType:2-2_SEMINAR_BR_,hourly; !- [J]
Output:Meter:Cumulative,General:InteriorLights:Electricity:SpaceType:2-2_SEMINAR_BR_,hourly; !- [J]
Output:Meter,Electricity:Zone:ZONE3-1_OPENOFFICE_3_5765BE82,hourly; !- [J]
Output:Meter:Cumulative,Electricity:Zone:ZONE3-1_OPENOFFICE_3_5765BE82,hourly; !- [J]
Output:Meter,Electricity:SpaceType:3-1_OPENOFFICE_BR_,hourly; !- [J]
Output:Meter:Cumulative,Electricity:SpaceType:3-1_OPENOFFICE_BR_,hourly; !- [J]
Output:Meter,InteriorLights:Electricity:Zone:ZONE3-1_OPENOFFICE_3_5765BE82,hourly; !- [J]
Output:Meter:Cumulative,InteriorLights:Electricity:Zone:ZONE3-1_OPENOFFICE_3_5765BE82,hourly; !- [J]
Output:Meter,InteriorLights:Electricity:SpaceType:3-1_OPENOFFICE_BR_,hourly; !- [J]
Output:Meter:Cumulative,InteriorLights:Electricity:SpaceType:3-1_OPENOFFICE_BR_,hourly; !- [J]
Output:Meter,General:InteriorLights:Electricity:Zone:ZONE3-1_OPENOFFICE_3_5765BE82,hourly; !- [J]
Output:Meter:Cumulative,General:InteriorLights:Electricity:Zone:ZONE3-1_OPENOFFICE_3_5765BE82,hourly; !- [J]
Output:Meter,General:InteriorLights:Electricity:SpaceType:3-1_OPENOFFICE_BR_,hourly; !- [J]
Output:Meter:Cumulative,General:InteriorLights:Electricity:SpaceType:3-1_OPENOFFICE_BR_,hourly; !- [J]
Output:Meter,Electricity:Zone:ZONE3-1_OPENOFFICE_5_09EEACDA,hourly; !- [J]
Output:Meter:Cumulative,Electricity:Zone:ZONE3-1_OPENOFFICE_5_09EEACDA,hourly; !- [J]
Output:Meter,InteriorLights:Electricity:Zone:ZONE3-1_OPENOFFICE_5_09EEACDA,hourly; !- [J]
Output:Meter:Cumulative,InteriorLights:Electricity:Zone:ZONE3-1_OPENOFFICE_5_09EEACDA,hourly; !- [J]
Output:Meter,General:InteriorLights:Electricity:Zone:ZONE3-1_OPENOFFICE_5_09EEACDA,hourly; !- [J]
Output:Meter:Cumulative,General:InteriorLights:Electricity:Zone:ZONE3-1_OPENOFFICE_5_09EEACDA,hourly; !- [J]
Output:Meter,Electricity:Zone:ZONE3-1_OPENOFFICE_1_9FEE57E6,hourly; !- [J]
Output:Meter:Cumulative,Electricity:Zone:ZONE3-1_OPENOFFICE_1_9FEE57E6,hourly; !- [J]
Output:Meter,InteriorLights:Electricity:Zone:ZONE3-1_OPENOFFICE_1_9FEE57E6,hourly; !- [J]
Output:Meter:Cumulative,InteriorLights:Electricity:Zone:ZONE3-1_OPENOFFICE_1_9FEE57E6,hourly; !- [J]
Output:Meter,General:InteriorLights:Electricity:Zone:ZONE3-1_OPENOFFICE_1_9FEE57E6,hourly; !- [J]
Output:Meter:Cumulative,General:InteriorLights:Electricity:Zone:ZONE3-1_OPENOFFICE_1_9FEE57E6,hourly; !- [J]
Output:Meter,Electricity:Zone:ZONE3-1_OPENOFFICE_2_110E1EF3,hourly; !- [J]
Output:Meter:Cumulative,Electricity:Zone:ZONE3-1_OPENOFFICE_2_110E1EF3,hourly; !- [J]
Output:Meter,InteriorLights:Electricity:Zone:ZONE3-1_OPENOFFICE_2_110E1EF3,hourly; !- [J]
Output:Meter:Cumulative,InteriorLights:Electricity:Zone:ZONE3-1_OPENOFFICE_2_110E1EF3,hourly; !- [J]
Output:Meter,General:InteriorLights:Electricity:Zone:ZONE3-1_OPENOFFICE_2_110E1EF3,hourly; !- [J]
Output:Meter:Cumulative,General:InteriorLights:Electricity:Zone:ZONE3-1_OPENOFFICE_2_110E1EF3,hourly; !- [J]
Output:Meter,Electricity:Zone:ZONE3-1_OPENOFFICE_4_DA0DF4CB,hourly; !- [J]
Output:Meter:Cumulative,Electricity:Zone:ZONE3-1_OPENOFFICE_4_DA0DF4CB,hourly; !- [J]
Output:Meter,InteriorLights:Electricity:Zone:ZONE3-1_OPENOFFICE_4_DA0DF4CB,hourly; !- [J]
Output:Meter:Cumulative,InteriorLights:Electricity:Zone:ZONE3-1_OPENOFFICE_4_DA0DF4CB,hourly; !- [J]
Output:Meter,General:InteriorLights:Electricity:Zone:ZONE3-1_OPENOFFICE_4_DA0DF4CB,hourly; !- [J]
Output:Meter:Cumulative,General:InteriorLights:Electricity:Zone:ZONE3-1_OPENOFFICE_4_DA0DF4CB,hourly; !- [J]
Output:Meter,Electricity:Zone:ZONE3-2_OPENOFFICE2_16_ADF85EEC,hourly; !- [J]
Output:Meter:Cumulative,Electricity:Zone:ZONE3-2_OPENOFFICE2_16_ADF85EEC,hourly; !- [J]
Output:Meter,Electricity:SpaceType:3-2_OPENOFFICE2_BR_,hourly; !- [J]
Output:Meter:Cumulative,Electricity:SpaceType:3-2_OPENOFFICE2_BR_,hourly; !- [J]
Output:Meter,InteriorLights:Electricity:Zone:ZONE3-2_OPENOFFICE2_16_ADF85EEC,hourly; !- [J]
Output:Meter:Cumulative,InteriorLights:Electricity:Zone:ZONE3-2_OPENOFFICE2_16_ADF85EEC,hourly; !- [J]
Output:Meter,InteriorLights:Electricity:SpaceType:3-2_OPENOFFICE2_BR_,hourly; !- [J]
Output:Meter:Cumulative,InteriorLights:Electricity:SpaceType:3-2_OPENOFFICE2_BR_,hourly; !- [J]
Output:Meter,General:InteriorLights:Electricity:Zone:ZONE3-2_OPENOFFICE2_16_ADF85EEC,hourly; !- [J]
Output:Meter:Cumulative,General:InteriorLights:Electricity:Zone:ZONE3-2_OPENOFFICE2_16_ADF85EEC,hourly; !- [J]
Output:Meter,General:InteriorLights:Electricity:SpaceType:3-2_OPENOFFICE2_BR_,hourly; !- [J]
Output:Meter:Cumulative,General:InteriorLights:Electricity:SpaceType:3-2_OPENOFFICE2_BR_,hourly; !- [J]
Output:Meter,Electricity:Zone:ZONE3-2_OPENOFFICE2_9_6C3225F9,hourly; !- [J]
Output:Meter:Cumulative,Electricity:Zone:ZONE3-2_OPENOFFICE2_9_6C3225F9,hourly; !- [J]
Output:Meter,InteriorLights:Electricity:Zone:ZONE3-2_OPENOFFICE2_9_6C3225F9,hourly; !- [J]
Output:Meter:Cumulative,InteriorLights:Electricity:Zone:ZONE3-2_OPENOFFICE2_9_6C3225F9,hourly; !- [J]
Output:Meter,General:InteriorLights:Electricity:Zone:ZONE3-2_OPENOFFICE2_9_6C3225F9,hourly; !- [J]
Output:Meter:Cumulative,General:InteriorLights:Electricity:Zone:ZONE3-2_OPENOFFICE2_9_6C3225F9,hourly; !- [J]
Output:Meter,Electricity:Zone:ZONE3-2_OPENOFFICE2_10_B9C5C1E2,hourly; !- [J]
Output:Meter:Cumulative,Electricity:Zone:ZONE3-2_OPENOFFICE2_10_B9C5C1E2,hourly; !- [J]
Output:Meter,InteriorLights:Electricity:Zone:ZONE3-2_OPENOFFICE2_10_B9C5C1E2,hourly; !- [J]
Output:Meter:Cumulative,InteriorLights:Electricity:Zone:ZONE3-2_OPENOFFICE2_10_B9C5C1E2,hourly; !- [J]
Output:Meter,General:InteriorLights:Electricity:Zone:ZONE3-2_OPENOFFICE2_10_B9C5C1E2,hourly; !- [J]
Output:Meter:Cumulative,General:InteriorLights:Electricity:Zone:ZONE3-2_OPENOFFICE2_10_B9C5C1E2,hourly; !- [J]
Output:Meter,Electricity:Zone:ZONE3-2_OPENOFFICE2_5_2A12DE25,hourly; !- [J]
Output:Meter:Cumulative,Electricity:Zone:ZONE3-2_OPENOFFICE2_5_2A12DE25,hourly; !- [J]
Output:Meter,InteriorLights:Electricity:Zone:ZONE3-2_OPENOFFICE2_5_2A12DE25,hourly; !- [J]
Output:Meter:Cumulative,InteriorLights:Electricity:Zone:ZONE3-2_OPENOFFICE2_5_2A12DE25,hourly; !- [J]
Output:Meter,General:InteriorLights:Electricity:Zone:ZONE3-2_OPENOFFICE2_5_2A12DE25,hourly; !- [J]
Output:Meter:Cumulative,General:InteriorLights:Electricity:Zone:ZONE3-2_OPENOFFICE2_5_2A12DE25,hourly; !- [J]
Output:Meter,Electricity:Zone:ZONE3-2_OPENOFFICE2_15_CC8116DD,hourly; !- [J]
Output:Meter:Cumulative,Electricity:Zone:ZONE3-2_OPENOFFICE2_15_CC8116DD,hourly; !- [J]
Output:Meter,InteriorLights:Electricity:Zone:ZONE3-2_OPENOFFICE2_15_CC8116DD,hourly; !- [J]
Output:Meter:Cumulative,InteriorLights:Electricity:Zone:ZONE3-2_OPENOFFICE2_15_CC8116DD,hourly; !- [J]
Output:Meter,General:InteriorLights:Electricity:Zone:ZONE3-2_OPENOFFICE2_15_CC8116DD,hourly; !- [J]
Output:Meter:Cumulative,General:InteriorLights:Electricity:Zone:ZONE3-2_OPENOFFICE2_15_CC8116DD,hourly; !- [J]
Output:Meter,Electricity:Zone:ZONE3-2_OPENOFFICE2_18_C00ED735,hourly; !- [J]
Output:Meter:Cumulative,Electricity:Zone:ZONE3-2_OPENOFFICE2_18_C00ED735,hourly; !- [J]
Output:Meter,InteriorLights:Electricity:Zone:ZONE3-2_OPENOFFICE2_18_C00ED735,hourly; !- [J]
Output:Meter:Cumulative,InteriorLights:Electricity:Zone:ZONE3-2_OPENOFFICE2_18_C00ED735,hourly; !- [J]
Output:Meter,General:InteriorLights:Electricity:Zone:ZONE3-2_OPENOFFICE2_18_C00ED735,hourly; !- [J]
Output:Meter:Cumulative,General:InteriorLights:Electricity:Zone:ZONE3-2_OPENOFFICE2_18_C00ED735,hourly; !- [J]
Output:Meter,Electricity:Zone:ZONE3-2_OPENOFFICE2_8_104F9EB4,hourly; !- [J]
Output:Meter:Cumulative,Electricity:Zone:ZONE3-2_OPENOFFICE2_8_104F9EB4,hourly; !- [J]
Output:Meter,InteriorLights:Electricity:Zone:ZONE3-2_OPENOFFICE2_8_104F9EB4,hourly; !- [J]
Output:Meter:Cumulative,InteriorLights:Electricity:Zone:ZONE3-2_OPENOFFICE2_8_104F9EB4,hourly; !- [J]
Output:Meter,General:InteriorLights:Electricity:Zone:ZONE3-2_OPENOFFICE2_8_104F9EB4,hourly; !- [J]
Output:Meter:Cumulative,General:InteriorLights:Electricity:Zone:ZONE3-2_OPENOFFICE2_8_104F9EB4,hourly; !- [J]
Output:Meter,Electricity:Zone:ZONE3-2_OPENOFFICE2_1_ECE2C271,hourly; !- [J]
Output:Meter:Cumulative,Electricity:Zone:ZONE3-2_OPENOFFICE2_1_ECE2C271,hourly; !- [J]
Output:Meter,InteriorLights:Electricity:Zone:ZONE3-2_OPENOFFICE2_1_ECE2C271,hourly; !- [J]
Output:Meter:Cumulative,InteriorLights:Electricity:Zone:ZONE3-2_OPENOFFICE2_1_ECE2C271,hourly; !- [J]
Output:Meter,General:InteriorLights:Electricity:Zone:ZONE3-2_OPENOFFICE2_1_ECE2C271,hourly; !- [J]
Output:Meter:Cumulative,General:InteriorLights:Electricity:Zone:ZONE3-2_OPENOFFICE2_1_ECE2C271,hourly; !- [J]
Output:Meter,Electricity:Zone:ZONE3-2_OPENOFFICE2_2_5518A8FC,hourly; !- [J]
Output:Meter:Cumulative,Electricity:Zone:ZONE3-2_OPENOFFICE2_2_5518A8FC,hourly; !- [J]
Output:Meter,InteriorLights:Electricity:Zone:ZONE3-2_OPENOFFICE2_2_5518A8FC,hourly; !- [J]
Output:Meter:Cumulative,InteriorLights:Electricity:Zone:ZONE3-2_OPENOFFICE2_2_5518A8FC,hourly; !- [J]
Output:Meter,General:InteriorLights:Electricity:Zone:ZONE3-2_OPENOFFICE2_2_5518A8FC,hourly; !- [J]
Output:Meter:Cumulative,General:InteriorLights:Electricity:Zone:ZONE3-2_OPENOFFICE2_2_5518A8FC,hourly; !- [J]
Output:Meter,Electricity:Zone:ZONE3-2_OPENOFFICE2_3_C814639C,hourly; !- [J]
Output:Meter:Cumulative,Electricity:Zone:ZONE3-2_OPENOFFICE2_3_C814639C,hourly; !- [J]
Output:Meter,InteriorLights:Electricity:Zone:ZONE3-2_OPENOFFICE2_3_C814639C,hourly; !- [J]
Output:Meter:Cumulative,InteriorLights:Electricity:Zone:ZONE3-2_OPENOFFICE2_3_C814639C,hourly; !- [J]
Output:Meter,General:InteriorLights:Electricity:Zone:ZONE3-2_OPENOFFICE2_3_C814639C,hourly; !- [J]
Output:Meter:Cumulative,General:InteriorLights:Electricity:Zone:ZONE3-2_OPENOFFICE2_3_C814639C,hourly; !- [J]
Output:Meter,Electricity:Zone:ZONE3-2_OPENOFFICE2_13_3028A123,hourly; !- [J]
Output:Meter:Cumulative,Electricity:Zone:ZONE3-2_OPENOFFICE2_13_3028A123,hourly; !- [J]
Output:Meter,InteriorLights:Electricity:Zone:ZONE3-2_OPENOFFICE2_13_3028A123,hourly; !- [J]
Output:Meter:Cumulative,InteriorLights:Electricity:Zone:ZONE3-2_OPENOFFICE2_13_3028A123,hourly; !- [J]
Output:Meter,General:InteriorLights:Electricity:Zone:ZONE3-2_OPENOFFICE2_13_3028A123,hourly; !- [J]
Output:Meter:Cumulative,General:InteriorLights:Electricity:Zone:ZONE3-2_OPENOFFICE2_13_3028A123,hourly; !- [J]
Output:Meter,Electricity:Zone:ZONE3-2_OPENOFFICE2_4_DF3F73FF,hourly; !- [J]
Output:Meter:Cumulative,Electricity:Zone:ZONE3-2_OPENOFFICE2_4_DF3F73FF,hourly; !- [J]
Output:Meter,InteriorLights:Electricity:Zone:ZONE3-2_OPENOFFICE2_4_DF3F73FF,hourly; !- [J]
Output:Meter:Cumulative,InteriorLights:Electricity:Zone:ZONE3-2_OPENOFFICE2_4_DF3F73FF,hourly; !- [J]
Output:Meter,General:InteriorLights:Electricity:Zone:ZONE3-2_OPENOFFICE2_4_DF3F73FF,hourly; !- [J]
Output:Meter:Cumulative,General:InteriorLights:Electricity:Zone:ZONE3-2_OPENOFFICE2_4_DF3F73FF,hourly; !- [J]
Output:Meter,Electricity:Zone:ZONE3-2_OPENOFFICE2_6_9B68752E,hourly; !- [J]
Output:Meter:Cumulative,Electricity:Zone:ZONE3-2_OPENOFFICE2_6_9B68752E,hourly; !- [J]
Output:Meter,InteriorLights:Electricity:Zone:ZONE3-2_OPENOFFICE2_6_9B68752E,hourly; !- [J]
Output:Meter:Cumulative,InteriorLights:Electricity:Zone:ZONE3-2_OPENOFFICE2_6_9B68752E,hourly; !- [J]
Output:Meter,General:InteriorLights:Electricity:Zone:ZONE3-2_OPENOFFICE2_6_9B68752E,hourly; !- [J]
Output:Meter:Cumulative,General:InteriorLights:Electricity:Zone:ZONE3-2_OPENOFFICE2_6_9B68752E,hourly; !- [J]
Output:Meter,Electricity:Zone:ZONE3-2_OPENOFFICE2_7_76C03369,hourly; !- [J]
Output:Meter:Cumulative,Electricity:Zone:ZONE3-2_OPENOFFICE2_7_76C03369,hourly; !- [J]
Output:Meter,InteriorLights:Electricity:Zone:ZONE3-2_OPENOFFICE2_7_76C03369,hourly; !- [J]
Output:Meter:Cumulative,InteriorLights:Electricity:Zone:ZONE3-2_OPENOFFICE2_7_76C03369,hourly; !- [J]
Output:Meter,General:InteriorLights:Electricity:Zone:ZONE3-2_OPENOFFICE2_7_76C03369,hourly; !- [J]
Output:Meter:Cumulative,General:InteriorLights:Electricity:Zone:ZONE3-2_OPENOFFICE2_7_76C03369,hourly; !- [J]
Output:Meter,Electricity:Zone:ZONE3-2_OPENOFFICE2_17_2225E337,hourly; !- [J]
Output:Meter:Cumulative,Electricity:Zone:ZONE3-2_OPENOFFICE2_17_2225E337,hourly; !- [J]
Output:Meter,InteriorLights:Electricity:Zone:ZONE3-2_OPENOFFICE2_17_2225E337,hourly; !- [J]
Output:Meter:Cumulative,InteriorLights:Electricity:Zone:ZONE3-2_OPENOFFICE2_17_2225E337,hourly; !- [J]
Output:Meter,General:InteriorLights:Electricity:Zone:ZONE3-2_OPENOFFICE2_17_2225E337,hourly; !- [J]
Output:Meter:Cumulative,General:InteriorLights:Electricity:Zone:ZONE3-2_OPENOFFICE2_17_2225E337,hourly; !- [J]
Output:Meter,Electricity:Zone:ZONE3-2_OPENOFFICE2_11_E9A9F9C3,hourly; !- [J]
Output:Meter:Cumulative,Electricity:Zone:ZONE3-2_OPENOFFICE2_11_E9A9F9C3,hourly; !- [J]
Output:Meter,InteriorLights:Electricity:Zone:ZONE3-2_OPENOFFICE2_11_E9A9F9C3,hourly; !- [J]
Output:Meter:Cumulative,InteriorLights:Electricity:Zone:ZONE3-2_OPENOFFICE2_11_E9A9F9C3,hourly; !- [J]
Output:Meter,General:InteriorLights:Electricity:Zone:ZONE3-2_OPENOFFICE2_11_E9A9F9C3,hourly; !- [J]
Output:Meter:Cumulative,General:InteriorLights:Electricity:Zone:ZONE3-2_OPENOFFICE2_11_E9A9F9C3,hourly; !- [J]
Output:Meter,Electricity:Zone:ZONE3-2_OPENOFFICE2_12_5847D1C6,hourly; !- [J]
Output:Meter:Cumulative,Electricity:Zone:ZONE3-2_OPENOFFICE2_12_5847D1C6,hourly; !- [J]
Output:Meter,InteriorLights:Electricity:Zone:ZONE3-2_OPENOFFICE2_12_5847D1C6,hourly; !- [J]
Output:Meter:Cumulative,InteriorLights:Electricity:Zone:ZONE3-2_OPENOFFICE2_12_5847D1C6,hourly; !- [J]
Output:Meter,General:InteriorLights:Electricity:Zone:ZONE3-2_OPENOFFICE2_12_5847D1C6,hourly; !- [J]
Output:Meter:Cumulative,General:InteriorLights:Electricity:Zone:ZONE3-2_OPENOFFICE2_12_5847D1C6,hourly; !- [J]
Output:Meter,Electricity:Zone:ZONE3-2_OPENOFFICE2_14_E2D86807,hourly; !- [J]
Output:Meter:Cumulative,Electricity:Zone:ZONE3-2_OPENOFFICE2_14_E2D86807,hourly; !- [J]
Output:Meter,InteriorLights:Electricity:Zone:ZONE3-2_OPENOFFICE2_14_E2D86807,hourly; !- [J]
Output:Meter:Cumulative,InteriorLights:Electricity:Zone:ZONE3-2_OPENOFFICE2_14_E2D86807,hourly; !- [J]
Output:Meter,General:InteriorLights:Electricity:Zone:ZONE3-2_OPENOFFICE2_14_E2D86807,hourly; !- [J]
Output:Meter:Cumulative,General:InteriorLights:Electricity:Zone:ZONE3-2_OPENOFFICE2_14_E2D86807,hourly; !- [J]
Output:Meter,Electricity:Zone:ZONE3-2_OPENOFFICE2_19_923A5F36,hourly; !- [J]
Output:Meter:Cumulative,Electricity:Zone:ZONE3-2_OPENOFFICE2_19_923A5F36,hourly; !- [J]
Output:Meter,InteriorLights:Electricity:Zone:ZONE3-2_OPENOFFICE2_19_923A5F36,hourly; !- [J]
Output:Meter:Cumulative,InteriorLights:Electricity:Zone:ZONE3-2_OPENOFFICE2_19_923A5F36,hourly; !- [J]
Output:Meter,General:InteriorLights:Electricity:Zone:ZONE3-2_OPENOFFICE2_19_923A5F36,hourly; !- [J]
Output:Meter:Cumulative,General:InteriorLights:Electricity:Zone:ZONE3-2_OPENOFFICE2_19_923A5F36,hourly; !- [J]
Output:Meter,Electricity:Zone:ZONE3-3_LAB_23607840,hourly; !- [J]
Output:Meter:Cumulative,Electricity:Zone:ZONE3-3_LAB_23607840,hourly; !- [J]
Output:Meter,Electricity:SpaceType:3-3_LAB_BR_,hourly; !- [J]
Output:Meter:Cumulative,Electricity:SpaceType:3-3_LAB_BR_,hourly; !- [J]
Output:Meter,InteriorLights:Electricity:Zone:ZONE3-3_LAB_23607840,hourly; !- [J]
Output:Meter:Cumulative,InteriorLights:Electricity:Zone:ZONE3-3_LAB_23607840,hourly; !- [J]
Output:Meter,InteriorLights:Electricity:SpaceType:3-3_LAB_BR_,hourly; !- [J]
Output:Meter:Cumulative,InteriorLights:Electricity:SpaceType:3-3_LAB_BR_,hourly; !- [J]
Output:Meter,General:InteriorLights:Electricity:Zone:ZONE3-3_LAB_23607840,hourly; !- [J]
Output:Meter:Cumulative,General:InteriorLights:Electricity:Zone:ZONE3-3_LAB_23607840,hourly; !- [J]
Output:Meter,General:InteriorLights:Electricity:SpaceType:3-3_LAB_BR_,hourly; !- [J]
Output:Meter:Cumulative,General:InteriorLights:Electricity:SpaceType:3-3_LAB_BR_,hourly; !- [J]
Output:Meter,Electricity:Zone:ZONE4-1CIRCULATION_16_2A4F0543,hourly; !- [J]
Output:Meter:Cumulative,Electricity:Zone:ZONE4-1CIRCULATION_16_2A4F0543,hourly; !- [J]
Output:Meter,Electricity:SpaceType:4-1_CIRCULATION_BR_,hourly; !- [J]
Output:Meter:Cumulative,Electricity:SpaceType:4-1_CIRCULATION_BR_,hourly; !- [J]
Output:Meter,InteriorLights:Electricity:Zone:ZONE4-1CIRCULATION_16_2A4F0543,hourly; !- [J]
Output:Meter:Cumulative,InteriorLights:Electricity:Zone:ZONE4-1CIRCULATION_16_2A4F0543,hourly; !- [J]
Output:Meter,InteriorLights:Electricity:SpaceType:4-1_CIRCULATION_BR_,hourly; !- [J]
Output:Meter:Cumulative,InteriorLights:Electricity:SpaceType:4-1_CIRCULATION_BR_,hourly; !- [J]
Output:Meter,General:InteriorLights:Electricity:Zone:ZONE4-1CIRCULATION_16_2A4F0543,hourly; !- [J]
Output:Meter:Cumulative,General:InteriorLights:Electricity:Zone:ZONE4-1CIRCULATION_16_2A4F0543,hourly; !- [J]
Output:Meter,General:InteriorLights:Electricity:SpaceType:4-1_CIRCULATION_BR_,hourly; !- [J]
Output:Meter:Cumulative,General:InteriorLights:Electricity:SpaceType:4-1_CIRCULATION_BR_,hourly; !- [J]
Output:Meter,Electricity:Zone:ZONE4-1CIRCULATION_12_C76A91C3,hourly; !- [J]
Output:Meter:Cumulative,Electricity:Zone:ZONE4-1CIRCULATION_12_C76A91C3,hourly; !- [J]
Output:Meter,InteriorLights:Electricity:Zone:ZONE4-1CIRCULATION_12_C76A91C3,hourly; !- [J]
Output:Meter:Cumulative,InteriorLights:Electricity:Zone:ZONE4-1CIRCULATION_12_C76A91C3,hourly; !- [J]
Output:Meter,General:InteriorLights:Electricity:Zone:ZONE4-1CIRCULATION_12_C76A91C3,hourly; !- [J]
Output:Meter:Cumulative,General:InteriorLights:Electricity:Zone:ZONE4-1CIRCULATION_12_C76A91C3,hourly; !- [J]
Output:Meter,Electricity:Zone:ZONE4-1CIRCULATION_5_8DFB2DA8,hourly; !- [J]
Output:Meter:Cumulative,Electricity:Zone:ZONE4-1CIRCULATION_5_8DFB2DA8,hourly; !- [J]
Output:Meter,InteriorLights:Electricity:Zone:ZONE4-1CIRCULATION_5_8DFB2DA8,hourly; !- [J]
Output:Meter:Cumulative,InteriorLights:Electricity:Zone:ZONE4-1CIRCULATION_5_8DFB2DA8,hourly; !- [J]
Output:Meter,General:InteriorLights:Electricity:Zone:ZONE4-1CIRCULATION_5_8DFB2DA8,hourly; !- [J]
Output:Meter:Cumulative,General:InteriorLights:Electricity:Zone:ZONE4-1CIRCULATION_5_8DFB2DA8,hourly; !- [J]
Output:Meter,Electricity:Zone:ZONE4-1CIRCULATION_4_B4D13B00,hourly; !- [J]
Output:Meter:Cumulative,Electricity:Zone:ZONE4-1CIRCULATION_4_B4D13B00,hourly; !- [J]
Output:Meter,InteriorLights:Electricity:Zone:ZONE4-1CIRCULATION_4_B4D13B00,hourly; !- [J]
Output:Meter:Cumulative,InteriorLights:Electricity:Zone:ZONE4-1CIRCULATION_4_B4D13B00,hourly; !- [J]
Output:Meter,General:InteriorLights:Electricity:Zone:ZONE4-1CIRCULATION_4_B4D13B00,hourly; !- [J]
Output:Meter:Cumulative,General:InteriorLights:Electricity:Zone:ZONE4-1CIRCULATION_4_B4D13B00,hourly; !- [J]
Output:Meter,Electricity:Zone:ZONE4-1CIRCULATION_13_936781D5,hourly; !- [J]
Output:Meter:Cumulative,Electricity:Zone:ZONE4-1CIRCULATION_13_936781D5,hourly; !- [J]
Output:Meter,InteriorLights:Electricity:Zone:ZONE4-1CIRCULATION_13_936781D5,hourly; !- [J]
Output:Meter:Cumulative,InteriorLights:Electricity:Zone:ZONE4-1CIRCULATION_13_936781D5,hourly; !- [J]
Output:Meter,General:InteriorLights:Electricity:Zone:ZONE4-1CIRCULATION_13_936781D5,hourly; !- [J]
Output:Meter:Cumulative,General:InteriorLights:Electricity:Zone:ZONE4-1CIRCULATION_13_936781D5,hourly; !- [J]
Output:Meter,Electricity:Zone:ZONE4-1CIRCULATION_3_90C8337A,hourly; !- [J]
Output:Meter:Cumulative,Electricity:Zone:ZONE4-1CIRCULATION_3_90C8337A,hourly; !- [J]
Output:Meter,InteriorLights:Electricity:Zone:ZONE4-1CIRCULATION_3_90C8337A,hourly; !- [J]
Output:Meter:Cumulative,InteriorLights:Electricity:Zone:ZONE4-1CIRCULATION_3_90C8337A,hourly; !- [J]
Output:Meter,General:InteriorLights:Electricity:Zone:ZONE4-1CIRCULATION_3_90C8337A,hourly; !- [J]
Output:Meter:Cumulative,General:InteriorLights:Electricity:Zone:ZONE4-1CIRCULATION_3_90C8337A,hourly; !- [J]
Output:Meter,Electricity:Zone:ZONE4-1CIRCULATION_8_3570322D,hourly; !- [J]
Output:Meter:Cumulative,Electricity:Zone:ZONE4-1CIRCULATION_8_3570322D,hourly; !- [J]
Output:Meter,InteriorLights:Electricity:Zone:ZONE4-1CIRCULATION_8_3570322D,hourly; !- [J]
Output:Meter:Cumulative,InteriorLights:Electricity:Zone:ZONE4-1CIRCULATION_8_3570322D,hourly; !- [J]
Output:Meter,General:InteriorLights:Electricity:Zone:ZONE4-1CIRCULATION_8_3570322D,hourly; !- [J]
Output:Meter:Cumulative,General:InteriorLights:Electricity:Zone:ZONE4-1CIRCULATION_8_3570322D,hourly; !- [J]
Output:Meter,Electricity:Zone:ZONE4-1CIRCULATION_1_7168E09F,hourly; !- [J]
Output:Meter:Cumulative,Electricity:Zone:ZONE4-1CIRCULATION_1_7168E09F,hourly; !- [J]
Output:Meter,InteriorLights:Electricity:Zone:ZONE4-1CIRCULATION_1_7168E09F,hourly; !- [J]
Output:Meter:Cumulative,InteriorLights:Electricity:Zone:ZONE4-1CIRCULATION_1_7168E09F,hourly; !- [J]
Output:Meter,General:InteriorLights:Electricity:Zone:ZONE4-1CIRCULATION_1_7168E09F,hourly; !- [J]
Output:Meter:Cumulative,General:InteriorLights:Electricity:Zone:ZONE4-1CIRCULATION_1_7168E09F,hourly; !- [J]
Output:Meter,Electricity:Zone:ZONE4-1CIRCULATION_15_3297F70C,hourly; !- [J]
Output:Meter:Cumulative,Electricity:Zone:ZONE4-1CIRCULATION_15_3297F70C,hourly; !- [J]
Output:Meter,InteriorLights:Electricity:Zone:ZONE4-1CIRCULATION_15_3297F70C,hourly; !- [J]
Output:Meter:Cumulative,InteriorLights:Electricity:Zone:ZONE4-1CIRCULATION_15_3297F70C,hourly; !- [J]
Output:Meter,General:InteriorLights:Electricity:Zone:ZONE4-1CIRCULATION_15_3297F70C,hourly; !- [J]
Output:Meter:Cumulative,General:InteriorLights:Electricity:Zone:ZONE4-1CIRCULATION_15_3297F70C,hourly; !- [J]
Output:Meter,Electricity:Zone:ZONE4-1CIRCULATION_2_BD6D9CBE,hourly; !- [J]
Output:Meter:Cumulative,Electricity:Zone:ZONE4-1CIRCULATION_2_BD6D9CBE,hourly; !- [J]
Output:Meter,InteriorLights:Electricity:Zone:ZONE4-1CIRCULATION_2_BD6D9CBE,hourly; !- [J]
Output:Meter:Cumulative,InteriorLights:Electricity:Zone:ZONE4-1CIRCULATION_2_BD6D9CBE,hourly; !- [J]
Output:Meter,General:InteriorLights:Electricity:Zone:ZONE4-1CIRCULATION_2_BD6D9CBE,hourly; !- [J]
Output:Meter:Cumulative,General:InteriorLights:Electricity:Zone:ZONE4-1CIRCULATION_2_BD6D9CBE,hourly; !- [J]
Output:Meter,Electricity:Zone:ZONE4-1CIRCULATION_6_541F55F8,hourly; !- [J]
Output:Meter:Cumulative,Electricity:Zone:ZONE4-1CIRCULATION_6_541F55F8,hourly; !- [J]
Output:Meter,InteriorLights:Electricity:Zone:ZONE4-1CIRCULATION_6_541F55F8,hourly; !- [J]
Output:Meter:Cumulative,InteriorLights:Electricity:Zone:ZONE4-1CIRCULATION_6_541F55F8,hourly; !- [J]
Output:Meter,General:InteriorLights:Electricity:Zone:ZONE4-1CIRCULATION_6_541F55F8,hourly; !- [J]
Output:Meter:Cumulative,General:InteriorLights:Electricity:Zone:ZONE4-1CIRCULATION_6_541F55F8,hourly; !- [J]
Output:Meter,Electricity:Zone:ZONE4-1CIRCULATION_14_3C9CBE47,hourly; !- [J]
Output:Meter:Cumulative,Electricity:Zone:ZONE4-1CIRCULATION_14_3C9CBE47,hourly; !- [J]
Output:Meter,InteriorLights:Electricity:Zone:ZONE4-1CIRCULATION_14_3C9CBE47,hourly; !- [J]
Output:Meter:Cumulative,InteriorLights:Electricity:Zone:ZONE4-1CIRCULATION_14_3C9CBE47,hourly; !- [J]
Output:Meter,General:InteriorLights:Electricity:Zone:ZONE4-1CIRCULATION_14_3C9CBE47,hourly; !- [J]
Output:Meter:Cumulative,General:InteriorLights:Electricity:Zone:ZONE4-1CIRCULATION_14_3C9CBE47,hourly; !- [J]
Output:Meter,Electricity:Zone:ZONE4-1CIRCULATION_7_59BBFA97,hourly; !- [J]
Output:Meter:Cumulative,Electricity:Zone:ZONE4-1CIRCULATION_7_59BBFA97,hourly; !- [J]
Output:Meter,InteriorLights:Electricity:Zone:ZONE4-1CIRCULATION_7_59BBFA97,hourly; !- [J]
Output:Meter:Cumulative,InteriorLights:Electricity:Zone:ZONE4-1CIRCULATION_7_59BBFA97,hourly; !- [J]
Output:Meter,General:InteriorLights:Electricity:Zone:ZONE4-1CIRCULATION_7_59BBFA97,hourly; !- [J]
Output:Meter:Cumulative,General:InteriorLights:Electricity:Zone:ZONE4-1CIRCULATION_7_59BBFA97,hourly; !- [J]
Output:Meter,Electricity:Zone:ZONE4-1CIRCULATION_9_7399E7A8,hourly; !- [J]
Output:Meter:Cumulative,Electricity:Zone:ZONE4-1CIRCULATION_9_7399E7A8,hourly; !- [J]
Output:Meter,InteriorLights:Electricity:Zone:ZONE4-1CIRCULATION_9_7399E7A8,hourly; !- [J]
Output:Meter:Cumulative,InteriorLights:Electricity:Zone:ZONE4-1CIRCULATION_9_7399E7A8,hourly; !- [J]
Output:Meter,General:InteriorLights:Electricity:Zone:ZONE4-1CIRCULATION_9_7399E7A8,hourly; !- [J]
Output:Meter:Cumulative,General:InteriorLights:Electricity:Zone:ZONE4-1CIRCULATION_9_7399E7A8,hourly; !- [J]
Output:Meter,Electricity:Zone:ZONE4-1CIRCULATION_10_7739E39B,hourly; !- [J]
Output:Meter:Cumulative,Electricity:Zone:ZONE4-1CIRCULATION_10_7739E39B,hourly; !- [J]
Output:Meter,InteriorLights:Electricity:Zone:ZONE4-1CIRCULATION_10_7739E39B,hourly; !- [J]
Output:Meter:Cumulative,InteriorLights:Electricity:Zone:ZONE4-1CIRCULATION_10_7739E39B,hourly; !- [J]
Output:Meter,General:InteriorLights:Electricity:Zone:ZONE4-1CIRCULATION_10_7739E39B,hourly; !- [J]
Output:Meter:Cumulative,General:InteriorLights:Electricity:Zone:ZONE4-1CIRCULATION_10_7739E39B,hourly; !- [J]
Output:Meter,Electricity:Zone:ZONE4-1CIRCULATION_11_8851A81F,hourly; !- [J]
Output:Meter:Cumulative,Electricity:Zone:ZONE4-1CIRCULATION_11_8851A81F,hourly; !- [J]
Output:Meter,InteriorLights:Electricity:Zone:ZONE4-1CIRCULATION_11_8851A81F,hourly; !- [J]
Output:Meter:Cumulative,InteriorLights:Electricity:Zone:ZONE4-1CIRCULATION_11_8851A81F,hourly; !- [J]
Output:Meter,General:InteriorLights:Electricity:Zone:ZONE4-1CIRCULATION_11_8851A81F,hourly; !- [J]
Output:Meter:Cumulative,General:InteriorLights:Electricity:Zone:ZONE4-1CIRCULATION_11_8851A81F,hourly; !- [J]
Output:Meter,Electricity:Zone:ZONE4-2STAIRCASE_6_98EB0E3C,hourly; !- [J]
Output:Meter:Cumulative,Electricity:Zone:ZONE4-2STAIRCASE_6_98EB0E3C,hourly; !- [J]
Output:Meter,Electricity:SpaceType:4-2_STAIRCASE_BR_,hourly; !- [J]
Output:Meter:Cumulative,Electricity:SpaceType:4-2_STAIRCASE_BR_,hourly; !- [J]
Output:Meter,InteriorLights:Electricity:Zone:ZONE4-2STAIRCASE_6_98EB0E3C,hourly; !- [J]
Output:Meter:Cumulative,InteriorLights:Electricity:Zone:ZONE4-2STAIRCASE_6_98EB0E3C,hourly; !- [J]
Output:Meter,InteriorLights:Electricity:SpaceType:4-2_STAIRCASE_BR_,hourly; !- [J]
Output:Meter:Cumulative,InteriorLights:Electricity:SpaceType:4-2_STAIRCASE_BR_,hourly; !- [J]
Output:Meter,General:InteriorLights:Electricity:Zone:ZONE4-2STAIRCASE_6_98EB0E3C,hourly; !- [J]
Output:Meter:Cumulative,General:InteriorLights:Electricity:Zone:ZONE4-2STAIRCASE_6_98EB0E3C,hourly; !- [J]
Output:Meter,General:InteriorLights:Electricity:SpaceType:4-2_STAIRCASE_BR_,hourly; !- [J]
Output:Meter:Cumulative,General:InteriorLights:Electricity:SpaceType:4-2_STAIRCASE_BR_,hourly; !- [J]
Output:Meter,Electricity:Zone:ZONE4-2STAIRCASE_4_D96FED0A,hourly; !- [J]
Output:Meter:Cumulative,Electricity:Zone:ZONE4-2STAIRCASE_4_D96FED0A,hourly; !- [J]
Output:Meter,InteriorLights:Electricity:Zone:ZONE4-2STAIRCASE_4_D96FED0A,hourly; !- [J]
Output:Meter:Cumulative,InteriorLights:Electricity:Zone:ZONE4-2STAIRCASE_4_D96FED0A,hourly; !- [J]
Output:Meter,General:InteriorLights:Electricity:Zone:ZONE4-2STAIRCASE_4_D96FED0A,hourly; !- [J]
Output:Meter:Cumulative,General:InteriorLights:Electricity:Zone:ZONE4-2STAIRCASE_4_D96FED0A,hourly; !- [J]
Output:Meter,Electricity:Zone:ZONE4-2STAIRCASE_1_ACD995B7,hourly; !- [J]
Output:Meter:Cumulative,Electricity:Zone:ZONE4-2STAIRCASE_1_ACD995B7,hourly; !- [J]
Output:Meter,InteriorLights:Electricity:Zone:ZONE4-2STAIRCASE_1_ACD995B7,hourly; !- [J]
Output:Meter:Cumulative,InteriorLights:Electricity:Zone:ZONE4-2STAIRCASE_1_ACD995B7,hourly; !- [J]
Output:Meter,General:InteriorLights:Electricity:Zone:ZONE4-2STAIRCASE_1_ACD995B7,hourly; !- [J]
Output:Meter:Cumulative,General:InteriorLights:Electricity:Zone:ZONE4-2STAIRCASE_1_ACD995B7,hourly; !- [J]
Output:Meter,Electricity:Zone:ZONE4-2STAIRCASE_2_971AA7EC,hourly; !- [J]
Output:Meter:Cumulative,Electricity:Zone:ZONE4-2STAIRCASE_2_971AA7EC,hourly; !- [J]
Output:Meter,InteriorLights:Electricity:Zone:ZONE4-2STAIRCASE_2_971AA7EC,hourly; !- [J]
Output:Meter:Cumulative,InteriorLights:Electricity:Zone:ZONE4-2STAIRCASE_2_971AA7EC,hourly; !- [J]
Output:Meter,General:InteriorLights:Electricity:Zone:ZONE4-2STAIRCASE_2_971AA7EC,hourly; !- [J]
Output:Meter:Cumulative,General:InteriorLights:Electricity:Zone:ZONE4-2STAIRCASE_2_971AA7EC,hourly; !- [J]
Output:Meter,Electricity:Zone:ZONE4-2STAIRCASE_3_CAD931A6,hourly; !- [J]
Output:Meter:Cumulative,Electricity:Zone:ZONE4-2STAIRCASE_3_CAD931A6,hourly; !- [J]
Output:Meter,InteriorLights:Electricity:Zone:ZONE4-2STAIRCASE_3_CAD931A6,hourly; !- [J]
Output:Meter:Cumulative,InteriorLights:Electricity:Zone:ZONE4-2STAIRCASE_3_CAD931A6,hourly; !- [J]
Output:Meter,General:InteriorLights:Electricity:Zone:ZONE4-2STAIRCASE_3_CAD931A6,hourly; !- [J]
Output:Meter:Cumulative,General:InteriorLights:Electricity:Zone:ZONE4-2STAIRCASE_3_CAD931A6,hourly; !- [J]
Output:Meter,Electricity:Zone:ZONE4-2STAIRCASE_5_7CE0751D,hourly; !- [J]
Output:Meter:Cumulative,Electricity:Zone:ZONE4-2STAIRCASE_5_7CE0751D,hourly; !- [J]
Output:Meter,InteriorLights:Electricity:Zone:ZONE4-2STAIRCASE_5_7CE0751D,hourly; !- [J]
Output:Meter:Cumulative,InteriorLights:Electricity:Zone:ZONE4-2STAIRCASE_5_7CE0751D,hourly; !- [J]
Output:Meter,General:InteriorLights:Electricity:Zone:ZONE4-2STAIRCASE_5_7CE0751D,hourly; !- [J]
Output:Meter:Cumulative,General:InteriorLights:Electricity:Zone:ZONE4-2STAIRCASE_5_7CE0751D,hourly; !- [J]
Output:Meter,Electricity:Zone:ZONE4-2STAIRCASE_7_666E637A,hourly; !- [J]
Output:Meter:Cumulative,Electricity:Zone:ZONE4-2STAIRCASE_7_666E637A,hourly; !- [J]
Output:Meter,InteriorLights:Electricity:Zone:ZONE4-2STAIRCASE_7_666E637A,hourly; !- [J]
Output:Meter:Cumulative,InteriorLights:Electricity:Zone:ZONE4-2STAIRCASE_7_666E637A,hourly; !- [J]
Output:Meter,General:InteriorLights:Electricity:Zone:ZONE4-2STAIRCASE_7_666E637A,hourly; !- [J]
Output:Meter:Cumulative,General:InteriorLights:Electricity:Zone:ZONE4-2STAIRCASE_7_666E637A,hourly; !- [J]
Output:Meter,Electricity:Zone:ZONE4-2STAIRCASE_8_023D3CA0,hourly; !- [J]
Output:Meter:Cumulative,Electricity:Zone:ZONE4-2STAIRCASE_8_023D3CA0,hourly; !- [J]
Output:Meter,InteriorLights:Electricity:Zone:ZONE4-2STAIRCASE_8_023D3CA0,hourly; !- [J]
Output:Meter:Cumulative,InteriorLights:Electricity:Zone:ZONE4-2STAIRCASE_8_023D3CA0,hourly; !- [J]
Output:Meter,General:InteriorLights:Electricity:Zone:ZONE4-2STAIRCASE_8_023D3CA0,hourly; !- [J]
Output:Meter:Cumulative,General:InteriorLights:Electricity:Zone:ZONE4-2STAIRCASE_8_023D3CA0,hourly; !- [J]
Output:Meter,Electricity:Zone:ZONE4-2STAIRCASE_9_593ACCB5,hourly; !- [J]
Output:Meter:Cumulative,Electricity:Zone:ZONE4-2STAIRCASE_9_593ACCB5,hourly; !- [J]
Output:Meter,InteriorLights:Electricity:Zone:ZONE4-2STAIRCASE_9_593ACCB5,hourly; !- [J]
Output:Meter:Cumulative,InteriorLights:Electricity:Zone:ZONE4-2STAIRCASE_9_593ACCB5,hourly; !- [J]
Output:Meter,General:InteriorLights:Electricity:Zone:ZONE4-2STAIRCASE_9_593ACCB5,hourly; !- [J]
Output:Meter:Cumulative,General:InteriorLights:Electricity:Zone:ZONE4-2STAIRCASE_9_593ACCB5,hourly; !- [J]
Output:Meter,Electricity:Zone:ZONE4-2STAIRCASE_11_8B1E9CFB,hourly; !- [J]
Output:Meter:Cumulative,Electricity:Zone:ZONE4-2STAIRCASE_11_8B1E9CFB,hourly; !- [J]
Output:Meter,InteriorLights:Electricity:Zone:ZONE4-2STAIRCASE_11_8B1E9CFB,hourly; !- [J]
Output:Meter:Cumulative,InteriorLights:Electricity:Zone:ZONE4-2STAIRCASE_11_8B1E9CFB,hourly; !- [J]
Output:Meter,General:InteriorLights:Electricity:Zone:ZONE4-2STAIRCASE_11_8B1E9CFB,hourly; !- [J]
Output:Meter:Cumulative,General:InteriorLights:Electricity:Zone:ZONE4-2STAIRCASE_11_8B1E9CFB,hourly; !- [J]
Output:Meter,Electricity:Zone:ZONE4-2STAIRCASE_10_D5759218,hourly; !- [J]
Output:Meter:Cumulative,Electricity:Zone:ZONE4-2STAIRCASE_10_D5759218,hourly; !- [J]
Output:Meter,InteriorLights:Electricity:Zone:ZONE4-2STAIRCASE_10_D5759218,hourly; !- [J]
Output:Meter:Cumulative,InteriorLights:Electricity:Zone:ZONE4-2STAIRCASE_10_D5759218,hourly; !- [J]
Output:Meter,General:InteriorLights:Electricity:Zone:ZONE4-2STAIRCASE_10_D5759218,hourly; !- [J]
Output:Meter:Cumulative,General:InteriorLights:Electricity:Zone:ZONE4-2STAIRCASE_10_D5759218,hourly; !- [J]
Output:Meter,Electricity:Zone:ZONE5_RROOMS_4_994341F5,hourly; !- [J]
Output:Meter:Cumulative,Electricity:Zone:ZONE5_RROOMS_4_994341F5,hourly; !- [J]
Output:Meter,Electricity:SpaceType:5_RROOMS_BR_,hourly; !- [J]
Output:Meter:Cumulative,Electricity:SpaceType:5_RROOMS_BR_,hourly; !- [J]
Output:Meter,InteriorLights:Electricity:Zone:ZONE5_RROOMS_4_994341F5,hourly; !- [J]
Output:Meter:Cumulative,InteriorLights:Electricity:Zone:ZONE5_RROOMS_4_994341F5,hourly; !- [J]
Output:Meter,InteriorLights:Electricity:SpaceType:5_RROOMS_BR_,hourly; !- [J]
Output:Meter:Cumulative,InteriorLights:Electricity:SpaceType:5_RROOMS_BR_,hourly; !- [J]
Output:Meter,General:InteriorLights:Electricity:Zone:ZONE5_RROOMS_4_994341F5,hourly; !- [J]
Output:Meter:Cumulative,General:InteriorLights:Electricity:Zone:ZONE5_RROOMS_4_994341F5,hourly; !- [J]
Output:Meter,General:InteriorLights:Electricity:SpaceType:5_RROOMS_BR_,hourly; !- [J]
Output:Meter:Cumulative,General:InteriorLights:Electricity:SpaceType:5_RROOMS_BR_,hourly; !- [J]
Output:Meter,Electricity:Zone:ZONE5_RROOMS_1_9AE4908E,hourly; !- [J]
Output:Meter:Cumulative,Electricity:Zone:ZONE5_RROOMS_1_9AE4908E,hourly; !- [J]
Output:Meter,InteriorLights:Electricity:Zone:ZONE5_RROOMS_1_9AE4908E,hourly; !- [J]
Output:Meter:Cumulative,InteriorLights:Electricity:Zone:ZONE5_RROOMS_1_9AE4908E,hourly; !- [J]
Output:Meter,General:InteriorLights:Electricity:Zone:ZONE5_RROOMS_1_9AE4908E,hourly; !- [J]
Output:Meter:Cumulative,General:InteriorLights:Electricity:Zone:ZONE5_RROOMS_1_9AE4908E,hourly; !- [J]
Output:Meter,Electricity:Zone:ZONE5_RROOMS_2_C6D4A9C9,hourly; !- [J]
Output:Meter:Cumulative,Electricity:Zone:ZONE5_RROOMS_2_C6D4A9C9,hourly; !- [J]
Output:Meter,InteriorLights:Electricity:Zone:ZONE5_RROOMS_2_C6D4A9C9,hourly; !- [J]
Output:Meter:Cumulative,InteriorLights:Electricity:Zone:ZONE5_RROOMS_2_C6D4A9C9,hourly; !- [J]
Output:Meter,General:InteriorLights:Electricity:Zone:ZONE5_RROOMS_2_C6D4A9C9,hourly; !- [J]
Output:Meter:Cumulative,General:InteriorLights:Electricity:Zone:ZONE5_RROOMS_2_C6D4A9C9,hourly; !- [J]
Output:Meter,Electricity:Zone:ZONE5_RROOMS_3_DFA855B2,hourly; !- [J]
Output:Meter:Cumulative,Electricity:Zone:ZONE5_RROOMS_3_DFA855B2,hourly; !- [J]
Output:Meter,InteriorLights:Electricity:Zone:ZONE5_RROOMS_3_DFA855B2,hourly; !- [J]
Output:Meter:Cumulative,InteriorLights:Electricity:Zone:ZONE5_RROOMS_3_DFA855B2,hourly; !- [J]
Output:Meter,General:InteriorLights:Electricity:Zone:ZONE5_RROOMS_3_DFA855B2,hourly; !- [J]
Output:Meter:Cumulative,General:InteriorLights:Electricity:Zone:ZONE5_RROOMS_3_DFA855B2,hourly; !- [J]
Output:Meter,Electricity:Zone:ZONE5_RROOMS_5_0ECBE711,hourly; !- [J]
Output:Meter:Cumulative,Electricity:Zone:ZONE5_RROOMS_5_0ECBE711,hourly; !- [J]
Output:Meter,InteriorLights:Electricity:Zone:ZONE5_RROOMS_5_0ECBE711,hourly; !- [J]
Output:Meter:Cumulative,InteriorLights:Electricity:Zone:ZONE5_RROOMS_5_0ECBE711,hourly; !- [J]
Output:Meter,General:InteriorLights:Electricity:Zone:ZONE5_RROOMS_5_0ECBE711,hourly; !- [J]
Output:Meter:Cumulative,General:InteriorLights:Electricity:Zone:ZONE5_RROOMS_5_0ECBE711,hourly; !- [J]
Output:Meter,Electricity:Zone:ZONE5_RROOMS_6_FF18170C,hourly; !- [J]
Output:Meter:Cumulative,Electricity:Zone:ZONE5_RROOMS_6_FF18170C,hourly; !- [J]
Output:Meter,InteriorLights:Electricity:Zone:ZONE5_RROOMS_6_FF18170C,hourly; !- [J]
Output:Meter:Cumulative,InteriorLights:Electricity:Zone:ZONE5_RROOMS_6_FF18170C,hourly; !- [J]
Output:Meter,General:InteriorLights:Electricity:Zone:ZONE5_RROOMS_6_FF18170C,hourly; !- [J]
Output:Meter:Cumulative,General:InteriorLights:Electricity:Zone:ZONE5_RROOMS_6_FF18170C,hourly; !- [J]
Output:Meter,Electricity:Zone:ZONE6_EQUIPMENT_1_8CBD7810,hourly; !- [J]
Output:Meter:Cumulative,Electricity:Zone:ZONE6_EQUIPMENT_1_8CBD7810,hourly; !- [J]
Output:Meter,Electricity:SpaceType:6_EQUIPMENT_BR_,hourly; !- [J]
Output:Meter:Cumulative,Electricity:SpaceType:6_EQUIPMENT_BR_,hourly; !- [J]
Output:Meter,InteriorLights:Electricity:Zone:ZONE6_EQUIPMENT_1_8CBD7810,hourly; !- [J]
Output:Meter:Cumulative,InteriorLights:Electricity:Zone:ZONE6_EQUIPMENT_1_8CBD7810,hourly; !- [J]
Output:Meter,InteriorLights:Electricity:SpaceType:6_EQUIPMENT_BR_,hourly; !- [J]
Output:Meter:Cumulative,InteriorLights:Electricity:SpaceType:6_EQUIPMENT_BR_,hourly; !- [J]
Output:Meter,General:InteriorLights:Electricity:Zone:ZONE6_EQUIPMENT_1_8CBD7810,hourly; !- [J]
Output:Meter:Cumulative,General:InteriorLights:Electricity:Zone:ZONE6_EQUIPMENT_1_8CBD7810,hourly; !- [J]
Output:Meter,General:InteriorLights:Electricity:SpaceType:6_EQUIPMENT_BR_,hourly; !- [J]
Output:Meter:Cumulative,General:InteriorLights:Electricity:SpaceType:6_EQUIPMENT_BR_,hourly; !- [J]
Output:Meter,Electricity:Zone:ZONE6_EQUIPMENT_2_EF97933C,hourly; !- [J]
Output:Meter:Cumulative,Electricity:Zone:ZONE6_EQUIPMENT_2_EF97933C,hourly; !- [J]
Output:Meter,InteriorLights:Electricity:Zone:ZONE6_EQUIPMENT_2_EF97933C,hourly; !- [J]
Output:Meter:Cumulative,InteriorLights:Electricity:Zone:ZONE6_EQUIPMENT_2_EF97933C,hourly; !- [J]
Output:Meter,General:InteriorLights:Electricity:Zone:ZONE6_EQUIPMENT_2_EF97933C,hourly; !- [J]
Output:Meter:Cumulative,General:InteriorLights:Electricity:Zone:ZONE6_EQUIPMENT_2_EF97933C,hourly; !- [J]
Output:Meter,Electricity:Zone:ZONE6_EQUIPMENT_3_F31A8878,hourly; !- [J]
Output:Meter:Cumulative,Electricity:Zone:ZONE6_EQUIPMENT_3_F31A8878,hourly; !- [J]
Output:Meter,InteriorLights:Electricity:Zone:ZONE6_EQUIPMENT_3_F31A8878,hourly; !- [J]
Output:Meter:Cumulative,InteriorLights:Electricity:Zone:ZONE6_EQUIPMENT_3_F31A8878,hourly; !- [J]
Output:Meter,General:InteriorLights:Electricity:Zone:ZONE6_EQUIPMENT_3_F31A8878,hourly; !- [J]
Output:Meter:Cumulative,General:InteriorLights:Electricity:Zone:ZONE6_EQUIPMENT_3_F31A8878,hourly; !- [J]
Output:Meter,Electricity:Zone:ZONE7SHAFT_6_667E71F6,hourly; !- [J]
Output:Meter:Cumulative,Electricity:Zone:ZONE7SHAFT_6_667E71F6,hourly; !- [J]
Output:Meter,Electricity:SpaceType:7_SHAFT_BR_,hourly; !- [J]
Output:Meter:Cumulative,Electricity:SpaceType:7_SHAFT_BR_,hourly; !- [J]
Output:Meter,InteriorLights:Electricity:Zone:ZONE7SHAFT_6_667E71F6,hourly; !- [J]
Output:Meter:Cumulative,InteriorLights:Electricity:Zone:ZONE7SHAFT_6_667E71F6,hourly; !- [J]
Output:Meter,InteriorLights:Electricity:SpaceType:7_SHAFT_BR_,hourly; !- [J]
Output:Meter:Cumulative,InteriorLights:Electricity:SpaceType:7_SHAFT_BR_,hourly; !- [J]
Output:Meter,General:InteriorLights:Electricity:Zone:ZONE7SHAFT_6_667E71F6,hourly; !- [J]
Output:Meter:Cumulative,General:InteriorLights:Electricity:Zone:ZONE7SHAFT_6_667E71F6,hourly; !- [J]
Output:Meter,General:InteriorLights:Electricity:SpaceType:7_SHAFT_BR_,hourly; !- [J]
Output:Meter:Cumulative,General:InteriorLights:Electricity:SpaceType:7_SHAFT_BR_,hourly; !- [J]
Output:Meter,Electricity:Zone:ZONE7SHAFT_1_FDB86AD9,hourly; !- [J]
Output:Meter:Cumulative,Electricity:Zone:ZONE7SHAFT_1_FDB86AD9,hourly; !- [J]
Output:Meter,InteriorLights:Electricity:Zone:ZONE7SHAFT_1_FDB86AD9,hourly; !- [J]
Output:Meter:Cumulative,InteriorLights:Electricity:Zone:ZONE7SHAFT_1_FDB86AD9,hourly; !- [J]
Output:Meter,General:InteriorLights:Electricity:Zone:ZONE7SHAFT_1_FDB86AD9,hourly; !- [J]
Output:Meter:Cumulative,General:InteriorLights:Electricity:Zone:ZONE7SHAFT_1_FDB86AD9,hourly; !- [J]
Output:Meter,Electricity:Zone:ZONE7SHAFT_2_D4B916FD,hourly; !- [J]
Output:Meter:Cumulative,Electricity:Zone:ZONE7SHAFT_2_D4B916FD,hourly; !- [J]
Output:Meter,InteriorLights:Electricity:Zone:ZONE7SHAFT_2_D4B916FD,hourly; !- [J]
Output:Meter:Cumulative,InteriorLights:Electricity:Zone:ZONE7SHAFT_2_D4B916FD,hourly; !- [J]
Output:Meter,General:InteriorLights:Electricity:Zone:ZONE7SHAFT_2_D4B916FD,hourly; !- [J]
Output:Meter:Cumulative,General:InteriorLights:Electricity:Zone:ZONE7SHAFT_2_D4B916FD,hourly; !- [J]
Output:Meter,Electricity:Zone:ZONE7SHAFT_3_EA084389,hourly; !- [J]
Output:Meter:Cumulative,Electricity:Zone:ZONE7SHAFT_3_EA084389,hourly; !- [J]
Output:Meter,InteriorLights:Electricity:Zone:ZONE7SHAFT_3_EA084389,hourly; !- [J]
Output:Meter:Cumulative,InteriorLights:Electricity:Zone:ZONE7SHAFT_3_EA084389,hourly; !- [J]
Output:Meter,General:InteriorLights:Electricity:Zone:ZONE7SHAFT_3_EA084389,hourly; !- [J]
Output:Meter:Cumulative,General:InteriorLights:Electricity:Zone:ZONE7SHAFT_3_EA084389,hourly; !- [J]
Output:Meter,Electricity:Zone:ZONE7SHAFT_4_D39F6429,hourly; !- [J]
Output:Meter:Cumulative,Electricity:Zone:ZONE7SHAFT_4_D39F6429,hourly; !- [J]
Output:Meter,InteriorLights:Electricity:Zone:ZONE7SHAFT_4_D39F6429,hourly; !- [J]
Output:Meter:Cumulative,InteriorLights:Electricity:Zone:ZONE7SHAFT_4_D39F6429,hourly; !- [J]
Output:Meter,General:InteriorLights:Electricity:Zone:ZONE7SHAFT_4_D39F6429,hourly; !- [J]
Output:Meter:Cumulative,General:InteriorLights:Electricity:Zone:ZONE7SHAFT_4_D39F6429,hourly; !- [J]
Output:Meter,Electricity:Zone:ZONE7SHAFT_5_DB2DEEF5,hourly; !- [J]
Output:Meter:Cumulative,Electricity:Zone:ZONE7SHAFT_5_DB2DEEF5,hourly; !- [J]
Output:Meter,InteriorLights:Electricity:Zone:ZONE7SHAFT_5_DB2DEEF5,hourly; !- [J]
Output:Meter:Cumulative,InteriorLights:Electricity:Zone:ZONE7SHAFT_5_DB2DEEF5,hourly; !- [J]
Output:Meter,General:InteriorLights:Electricity:Zone:ZONE7SHAFT_5_DB2DEEF5,hourly; !- [J]
Output:Meter:Cumulative,General:InteriorLights:Electricity:Zone:ZONE7SHAFT_5_DB2DEEF5,hourly; !- [J]
Output:Meter,Electricity:Zone:ZONE9STORE_1_A17ED0D6,hourly; !- [J]
Output:Meter:Cumulative,Electricity:Zone:ZONE9STORE_1_A17ED0D6,hourly; !- [J]
Output:Meter,Electricity:SpaceType:9_STORE_BR_,hourly; !- [J]
Output:Meter:Cumulative,Electricity:SpaceType:9_STORE_BR_,hourly; !- [J]
Output:Meter,InteriorLights:Electricity:Zone:ZONE9STORE_1_A17ED0D6,hourly; !- [J]
Output:Meter:Cumulative,InteriorLights:Electricity:Zone:ZONE9STORE_1_A17ED0D6,hourly; !- [J]
Output:Meter,InteriorLights:Electricity:SpaceType:9_STORE_BR_,hourly; !- [J]
Output:Meter:Cumulative,InteriorLights:Electricity:SpaceType:9_STORE_BR_,hourly; !- [J]
Output:Meter,General:InteriorLights:Electricity:Zone:ZONE9STORE_1_A17ED0D6,hourly; !- [J]
Output:Meter:Cumulative,General:InteriorLights:Electricity:Zone:ZONE9STORE_1_A17ED0D6,hourly; !- [J]
Output:Meter,General:InteriorLights:Electricity:SpaceType:9_STORE_BR_,hourly; !- [J]
Output:Meter:Cumulative,General:InteriorLights:Electricity:SpaceType:9_STORE_BR_,hourly; !- [J]
Output:Meter,Electricity:Zone:ZONE9STORE_2_1B33B974,hourly; !- [J]
Output:Meter:Cumulative,Electricity:Zone:ZONE9STORE_2_1B33B974,hourly; !- [J]
Output:Meter,InteriorLights:Electricity:Zone:ZONE9STORE_2_1B33B974,hourly; !- [J]
Output:Meter:Cumulative,InteriorLights:Electricity:Zone:ZONE9STORE_2_1B33B974,hourly; !- [J]
Output:Meter,General:InteriorLights:Electricity:Zone:ZONE9STORE_2_1B33B974,hourly; !- [J]
Output:Meter:Cumulative,General:InteriorLights:Electricity:Zone:ZONE9STORE_2_1B33B974,hourly; !- [J]
Output:Meter,InteriorEquipment:Electricity,hourly; !- [J]
Output:Meter:Cumulative,InteriorEquipment:Electricity,hourly; !- [J]
Output:Meter,InteriorEquipment:Electricity:Zone:ZONE1-1_ATRIUM_6A8D9A73,hourly; !- [J]
Output:Meter:Cumulative,InteriorEquipment:Electricity:Zone:ZONE1-1_ATRIUM_6A8D9A73,hourly; !- [J]
Output:Meter,InteriorEquipment:Electricity:SpaceType:1-1_ATRIUM_BR_,hourly; !- [J]
Output:Meter:Cumulative,InteriorEquipment:Electricity:SpaceType:1-1_ATRIUM_BR_,hourly; !- [J]
Output:Meter,Electric Equipment:InteriorEquipment:Electricity,hourly; !- [J]
Output:Meter:Cumulative,Electric Equipment:InteriorEquipment:Electricity,hourly; !- [J]
Output:Meter,Electric Equipment:InteriorEquipment:Electricity:Zone:ZONE1-1_ATRIUM_6A8D9A73,hourly; !- [J]
Output:Meter:Cumulative,Electric Equipment:InteriorEquipment:Electricity:Zone:ZONE1-1_ATRIUM_6A8D9A73,hourly; !- [J]
Output:Meter,Electric Equipment:InteriorEquipment:Electricity:SpaceType:1-1_ATRIUM_BR_,hourly; !- [J]
Output:Meter:Cumulative,Electric Equipment:InteriorEquipment:Electricity:SpaceType:1-1_ATRIUM_BR_,hourly; !- [J]
Output:Meter,InteriorEquipment:Electricity:Zone:ZONE1-2_CAFE_C039BA0E,hourly; !- [J]
Output:Meter:Cumulative,InteriorEquipment:Electricity:Zone:ZONE1-2_CAFE_C039BA0E,hourly; !- [J]
Output:Meter,InteriorEquipment:Electricity:SpaceType:1-2_CAFE_BR_,hourly; !- [J]
Output:Meter:Cumulative,InteriorEquipment:Electricity:SpaceType:1-2_CAFE_BR_,hourly; !- [J]
Output:Meter,Electric Equipment:InteriorEquipment:Electricity:Zone:ZONE1-2_CAFE_C039BA0E,hourly; !- [J]
Output:Meter:Cumulative,Electric Equipment:InteriorEquipment:Electricity:Zone:ZONE1-2_CAFE_C039BA0E,hourly; !- [J]
Output:Meter,Electric Equipment:InteriorEquipment:Electricity:SpaceType:1-2_CAFE_BR_,hourly; !- [J]
Output:Meter:Cumulative,Electric Equipment:InteriorEquipment:Electricity:SpaceType:1-2_CAFE_BR_,hourly; !- [J]
Output:Meter,InteriorEquipment:Electricity:Zone:ZONE2-1_MEETING_12_465E56E5,hourly; !- [J]
Output:Meter:Cumulative,InteriorEquipment:Electricity:Zone:ZONE2-1_MEETING_12_465E56E5,hourly; !- [J]
Output:Meter,InteriorEquipment:Electricity:SpaceType:2-1_MEETING_BR_,hourly; !- [J]
Output:Meter:Cumulative,InteriorEquipment:Electricity:SpaceType:2-1_MEETING_BR_,hourly; !- [J]
Output:Meter,Electric Equipment:InteriorEquipment:Electricity:Zone:ZONE2-1_MEETING_12_465E56E5,hourly; !- [J]
Output:Meter:Cumulative,Electric Equipment:InteriorEquipment:Electricity:Zone:ZONE2-1_MEETING_12_465E56E5,hourly; !- [J]
Output:Meter,Electric Equipment:InteriorEquipment:Electricity:SpaceType:2-1_MEETING_BR_,hourly; !- [J]
Output:Meter:Cumulative,Electric Equipment:InteriorEquipment:Electricity:SpaceType:2-1_MEETING_BR_,hourly; !- [J]
Output:Meter,InteriorEquipment:Electricity:Zone:ZONE2-1_MEETING_5_B7A8E0C3,hourly; !- [J]
Output:Meter:Cumulative,InteriorEquipment:Electricity:Zone:ZONE2-1_MEETING_5_B7A8E0C3,hourly; !- [J]
Output:Meter,Electric Equipment:InteriorEquipment:Electricity:Zone:ZONE2-1_MEETING_5_B7A8E0C3,hourly; !- [J]
Output:Meter:Cumulative,Electric Equipment:InteriorEquipment:Electricity:Zone:ZONE2-1_MEETING_5_B7A8E0C3,hourly; !- [J]
Output:Meter,InteriorEquipment:Electricity:Zone:ZONE2-1_MEETING_10_183A7EF1,hourly; !- [J]
Output:Meter:Cumulative,InteriorEquipment:Electricity:Zone:ZONE2-1_MEETING_10_183A7EF1,hourly; !- [J]
Output:Meter,Electric Equipment:InteriorEquipment:Electricity:Zone:ZONE2-1_MEETING_10_183A7EF1,hourly; !- [J]
Output:Meter:Cumulative,Electric Equipment:InteriorEquipment:Electricity:Zone:ZONE2-1_MEETING_10_183A7EF1,hourly; !- [J]
Output:Meter,InteriorEquipment:Electricity:Zone:ZONE2-1_MEETING_1_ECA3B0F8,hourly; !- [J]
Output:Meter:Cumulative,InteriorEquipment:Electricity:Zone:ZONE2-1_MEETING_1_ECA3B0F8,hourly; !- [J]
Output:Meter,Electric Equipment:InteriorEquipment:Electricity:Zone:ZONE2-1_MEETING_1_ECA3B0F8,hourly; !- [J]
Output:Meter:Cumulative,Electric Equipment:InteriorEquipment:Electricity:Zone:ZONE2-1_MEETING_1_ECA3B0F8,hourly; !- [J]
Output:Meter,InteriorEquipment:Electricity:Zone:ZONE2-1_MEETING_2_0E073C3E,hourly; !- [J]
Output:Meter:Cumulative,InteriorEquipment:Electricity:Zone:ZONE2-1_MEETING_2_0E073C3E,hourly; !- [J]
Output:Meter,Electric Equipment:InteriorEquipment:Electricity:Zone:ZONE2-1_MEETING_2_0E073C3E,hourly; !- [J]
Output:Meter:Cumulative,Electric Equipment:InteriorEquipment:Electricity:Zone:ZONE2-1_MEETING_2_0E073C3E,hourly; !- [J]
Output:Meter,InteriorEquipment:Electricity:Zone:ZONE2-1_MEETING_3_3B5615BF,hourly; !- [J]
Output:Meter:Cumulative,InteriorEquipment:Electricity:Zone:ZONE2-1_MEETING_3_3B5615BF,hourly; !- [J]
Output:Meter,Electric Equipment:InteriorEquipment:Electricity:Zone:ZONE2-1_MEETING_3_3B5615BF,hourly; !- [J]
Output:Meter:Cumulative,Electric Equipment:InteriorEquipment:Electricity:Zone:ZONE2-1_MEETING_3_3B5615BF,hourly; !- [J]
Output:Meter,InteriorEquipment:Electricity:Zone:ZONE2-1_MEETING_4_154BF8BC,hourly; !- [J]
Output:Meter:Cumulative,InteriorEquipment:Electricity:Zone:ZONE2-1_MEETING_4_154BF8BC,hourly; !- [J]
Output:Meter,Electric Equipment:InteriorEquipment:Electricity:Zone:ZONE2-1_MEETING_4_154BF8BC,hourly; !- [J]
Output:Meter:Cumulative,Electric Equipment:InteriorEquipment:Electricity:Zone:ZONE2-1_MEETING_4_154BF8BC,hourly; !- [J]
Output:Meter,InteriorEquipment:Electricity:Zone:ZONE2-1_MEETING_6_75394D70,hourly; !- [J]
Output:Meter:Cumulative,InteriorEquipment:Electricity:Zone:ZONE2-1_MEETING_6_75394D70,hourly; !- [J]
Output:Meter,Electric Equipment:InteriorEquipment:Electricity:Zone:ZONE2-1_MEETING_6_75394D70,hourly; !- [J]
Output:Meter:Cumulative,Electric Equipment:InteriorEquipment:Electricity:Zone:ZONE2-1_MEETING_6_75394D70,hourly; !- [J]
Output:Meter,InteriorEquipment:Electricity:Zone:ZONE2-1_MEETING_7_F519F905,hourly; !- [J]
Output:Meter:Cumulative,InteriorEquipment:Electricity:Zone:ZONE2-1_MEETING_7_F519F905,hourly; !- [J]
Output:Meter,Electric Equipment:InteriorEquipment:Electricity:Zone:ZONE2-1_MEETING_7_F519F905,hourly; !- [J]
Output:Meter:Cumulative,Electric Equipment:InteriorEquipment:Electricity:Zone:ZONE2-1_MEETING_7_F519F905,hourly; !- [J]
Output:Meter,InteriorEquipment:Electricity:Zone:ZONE2-1_MEETING_8_3DE49B7E,hourly; !- [J]
Output:Meter:Cumulative,InteriorEquipment:Electricity:Zone:ZONE2-1_MEETING_8_3DE49B7E,hourly; !- [J]
Output:Meter,Electric Equipment:InteriorEquipment:Electricity:Zone:ZONE2-1_MEETING_8_3DE49B7E,hourly; !- [J]
Output:Meter:Cumulative,Electric Equipment:InteriorEquipment:Electricity:Zone:ZONE2-1_MEETING_8_3DE49B7E,hourly; !- [J]
Output:Meter,InteriorEquipment:Electricity:Zone:ZONE2-1_MEETING_9_DC6C83D3,hourly; !- [J]
Output:Meter:Cumulative,InteriorEquipment:Electricity:Zone:ZONE2-1_MEETING_9_DC6C83D3,hourly; !- [J]
Output:Meter,Electric Equipment:InteriorEquipment:Electricity:Zone:ZONE2-1_MEETING_9_DC6C83D3,hourly; !- [J]
Output:Meter:Cumulative,Electric Equipment:InteriorEquipment:Electricity:Zone:ZONE2-1_MEETING_9_DC6C83D3,hourly; !- [J]
Output:Meter,InteriorEquipment:Electricity:Zone:ZONE2-1_MEETING_11_CE9D4C2E,hourly; !- [J]
Output:Meter:Cumulative,InteriorEquipment:Electricity:Zone:ZONE2-1_MEETING_11_CE9D4C2E,hourly; !- [J]
Output:Meter,Electric Equipment:InteriorEquipment:Electricity:Zone:ZONE2-1_MEETING_11_CE9D4C2E,hourly; !- [J]
Output:Meter:Cumulative,Electric Equipment:InteriorEquipment:Electricity:Zone:ZONE2-1_MEETING_11_CE9D4C2E,hourly; !- [J]
Output:Meter,InteriorEquipment:Electricity:Zone:ZONE2-1_MEETING_13_BAD50B7F,hourly; !- [J]
Output:Meter:Cumulative,InteriorEquipment:Electricity:Zone:ZONE2-1_MEETING_13_BAD50B7F,hourly; !- [J]
Output:Meter,Electric Equipment:InteriorEquipment:Electricity:Zone:ZONE2-1_MEETING_13_BAD50B7F,hourly; !- [J]
Output:Meter:Cumulative,Electric Equipment:InteriorEquipment:Electricity:Zone:ZONE2-1_MEETING_13_BAD50B7F,hourly; !- [J]
Output:Meter,InteriorEquipment:Electricity:Zone:ZONE2-1_MEETING_14_58C0FE43,hourly; !- [J]
Output:Meter:Cumulative,InteriorEquipment:Electricity:Zone:ZONE2-1_MEETING_14_58C0FE43,hourly; !- [J]
Output:Meter,Electric Equipment:InteriorEquipment:Electricity:Zone:ZONE2-1_MEETING_14_58C0FE43,hourly; !- [J]
Output:Meter:Cumulative,Electric Equipment:InteriorEquipment:Electricity:Zone:ZONE2-1_MEETING_14_58C0FE43,hourly; !- [J]
Output:Meter,InteriorEquipment:Electricity:Zone:ZONE2-1_MEETING_15_54A628B9,hourly; !- [J]
Output:Meter:Cumulative,InteriorEquipment:Electricity:Zone:ZONE2-1_MEETING_15_54A628B9,hourly; !- [J]
Output:Meter,Electric Equipment:InteriorEquipment:Electricity:Zone:ZONE2-1_MEETING_15_54A628B9,hourly; !- [J]
Output:Meter:Cumulative,Electric Equipment:InteriorEquipment:Electricity:Zone:ZONE2-1_MEETING_15_54A628B9,hourly; !- [J]
Output:Meter,InteriorEquipment:Electricity:Zone:ZONE2-1_MEETING_16_D44DE828,hourly; !- [J]
Output:Meter:Cumulative,InteriorEquipment:Electricity:Zone:ZONE2-1_MEETING_16_D44DE828,hourly; !- [J]
Output:Meter,Electric Equipment:InteriorEquipment:Electricity:Zone:ZONE2-1_MEETING_16_D44DE828,hourly; !- [J]
Output:Meter:Cumulative,Electric Equipment:InteriorEquipment:Electricity:Zone:ZONE2-1_MEETING_16_D44DE828,hourly; !- [J]
Output:Meter,InteriorEquipment:Electricity:Zone:ZONE2-1_MEETING_17_AD26577D,hourly; !- [J]
Output:Meter:Cumulative,InteriorEquipment:Electricity:Zone:ZONE2-1_MEETING_17_AD26577D,hourly; !- [J]
Output:Meter,Electric Equipment:InteriorEquipment:Electricity:Zone:ZONE2-1_MEETING_17_AD26577D,hourly; !- [J]
Output:Meter:Cumulative,Electric Equipment:InteriorEquipment:Electricity:Zone:ZONE2-1_MEETING_17_AD26577D,hourly; !- [J]
Output:Meter,InteriorEquipment:Electricity:Zone:ZONE2-1_MEETING_18_C3FA0FFE,hourly; !- [J]
Output:Meter:Cumulative,InteriorEquipment:Electricity:Zone:ZONE2-1_MEETING_18_C3FA0FFE,hourly; !- [J]
Output:Meter,Electric Equipment:InteriorEquipment:Electricity:Zone:ZONE2-1_MEETING_18_C3FA0FFE,hourly; !- [J]
Output:Meter:Cumulative,Electric Equipment:InteriorEquipment:Electricity:Zone:ZONE2-1_MEETING_18_C3FA0FFE,hourly; !- [J]
Output:Meter,InteriorEquipment:Electricity:Zone:ZONE2-1_MEETING_19_6762C5BD,hourly; !- [J]
Output:Meter:Cumulative,InteriorEquipment:Electricity:Zone:ZONE2-1_MEETING_19_6762C5BD,hourly; !- [J]
Output:Meter,Electric Equipment:InteriorEquipment:Electricity:Zone:ZONE2-1_MEETING_19_6762C5BD,hourly; !- [J]
Output:Meter:Cumulative,Electric Equipment:InteriorEquipment:Electricity:Zone:ZONE2-1_MEETING_19_6762C5BD,hourly; !- [J]
Output:Meter,InteriorEquipment:Electricity:Zone:ZONE2-1_MEETING_20_BB5F5374,hourly; !- [J]
Output:Meter:Cumulative,InteriorEquipment:Electricity:Zone:ZONE2-1_MEETING_20_BB5F5374,hourly; !- [J]
Output:Meter,Electric Equipment:InteriorEquipment:Electricity:Zone:ZONE2-1_MEETING_20_BB5F5374,hourly; !- [J]
Output:Meter:Cumulative,Electric Equipment:InteriorEquipment:Electricity:Zone:ZONE2-1_MEETING_20_BB5F5374,hourly; !- [J]
Output:Meter,InteriorEquipment:Electricity:Zone:ZONE2-2SEMINAR_D779CA07,hourly; !- [J]
Output:Meter:Cumulative,InteriorEquipment:Electricity:Zone:ZONE2-2SEMINAR_D779CA07,hourly; !- [J]
Output:Meter,InteriorEquipment:Electricity:SpaceType:2-2_SEMINAR_BR_,hourly; !- [J]
Output:Meter:Cumulative,InteriorEquipment:Electricity:SpaceType:2-2_SEMINAR_BR_,hourly; !- [J]
Output:Meter,Electric Equipment:InteriorEquipment:Electricity:Zone:ZONE2-2SEMINAR_D779CA07,hourly; !- [J]
Output:Meter:Cumulative,Electric Equipment:InteriorEquipment:Electricity:Zone:ZONE2-2SEMINAR_D779CA07,hourly; !- [J]
Output:Meter,Electric Equipment:InteriorEquipment:Electricity:SpaceType:2-2_SEMINAR_BR_,hourly; !- [J]
Output:Meter:Cumulative,Electric Equipment:InteriorEquipment:Electricity:SpaceType:2-2_SEMINAR_BR_,hourly; !- [J]
Output:Meter,InteriorEquipment:Electricity:Zone:ZONE3-1_OPENOFFICE_3_5765BE82,hourly; !- [J]
Output:Meter:Cumulative,InteriorEquipment:Electricity:Zone:ZONE3-1_OPENOFFICE_3_5765BE82,hourly; !- [J]
Output:Meter,InteriorEquipment:Electricity:SpaceType:3-1_OPENOFFICE_BR_,hourly; !- [J]
Output:Meter:Cumulative,InteriorEquipment:Electricity:SpaceType:3-1_OPENOFFICE_BR_,hourly; !- [J]
Output:Meter,Electric Equipment:InteriorEquipment:Electricity:Zone:ZONE3-1_OPENOFFICE_3_5765BE82,hourly; !- [J]
Output:Meter:Cumulative,Electric Equipment:InteriorEquipment:Electricity:Zone:ZONE3-1_OPENOFFICE_3_5765BE82,hourly; !- [J]
Output:Meter,Electric Equipment:InteriorEquipment:Electricity:SpaceType:3-1_OPENOFFICE_BR_,hourly; !- [J]
Output:Meter:Cumulative,Electric Equipment:InteriorEquipment:Electricity:SpaceType:3-1_OPENOFFICE_BR_,hourly; !- [J]
Output:Meter,InteriorEquipment:Electricity:Zone:ZONE3-1_OPENOFFICE_5_09EEACDA,hourly; !- [J]
Output:Meter:Cumulative,InteriorEquipment:Electricity:Zone:ZONE3-1_OPENOFFICE_5_09EEACDA,hourly; !- [J]
Output:Meter,Electric Equipment:InteriorEquipment:Electricity:Zone:ZONE3-1_OPENOFFICE_5_09EEACDA,hourly; !- [J]
Output:Meter:Cumulative,Electric Equipment:InteriorEquipment:Electricity:Zone:ZONE3-1_OPENOFFICE_5_09EEACDA,hourly; !- [J]
Output:Meter,InteriorEquipment:Electricity:Zone:ZONE3-1_OPENOFFICE_1_9FEE57E6,hourly; !- [J]
Output:Meter:Cumulative,InteriorEquipment:Electricity:Zone:ZONE3-1_OPENOFFICE_1_9FEE57E6,hourly; !- [J]
Output:Meter,Electric Equipment:InteriorEquipment:Electricity:Zone:ZONE3-1_OPENOFFICE_1_9FEE57E6,hourly; !- [J]
Output:Meter:Cumulative,Electric Equipment:InteriorEquipment:Electricity:Zone:ZONE3-1_OPENOFFICE_1_9FEE57E6,hourly; !- [J]
Output:Meter,InteriorEquipment:Electricity:Zone:ZONE3-1_OPENOFFICE_2_110E1EF3,hourly; !- [J]
Output:Meter:Cumulative,InteriorEquipment:Electricity:Zone:ZONE3-1_OPENOFFICE_2_110E1EF3,hourly; !- [J]
Output:Meter,Electric Equipment:InteriorEquipment:Electricity:Zone:ZONE3-1_OPENOFFICE_2_110E1EF3,hourly; !- [J]
Output:Meter:Cumulative,Electric Equipment:InteriorEquipment:Electricity:Zone:ZONE3-1_OPENOFFICE_2_110E1EF3,hourly; !- [J]
Output:Meter,InteriorEquipment:Electricity:Zone:ZONE3-1_OPENOFFICE_4_DA0DF4CB,hourly; !- [J]
Output:Meter:Cumulative,InteriorEquipment:Electricity:Zone:ZONE3-1_OPENOFFICE_4_DA0DF4CB,hourly; !- [J]
Output:Meter,Electric Equipment:InteriorEquipment:Electricity:Zone:ZONE3-1_OPENOFFICE_4_DA0DF4CB,hourly; !- [J]
Output:Meter:Cumulative,Electric Equipment:InteriorEquipment:Electricity:Zone:ZONE3-1_OPENOFFICE_4_DA0DF4CB,hourly; !- [J]
Output:Meter,InteriorEquipment:Electricity:Zone:ZONE3-2_OPENOFFICE2_16_ADF85EEC,hourly; !- [J]
Output:Meter:Cumulative,InteriorEquipment:Electricity:Zone:ZONE3-2_OPENOFFICE2_16_ADF85EEC,hourly; !- [J]
Output:Meter,InteriorEquipment:Electricity:SpaceType:3-2_OPENOFFICE2_BR_,hourly; !- [J]
Output:Meter:Cumulative,InteriorEquipment:Electricity:SpaceType:3-2_OPENOFFICE2_BR_,hourly; !- [J]
Output:Meter,Electric Equipment:InteriorEquipment:Electricity:Zone:ZONE3-2_OPENOFFICE2_16_ADF85EEC,hourly; !- [J]
Output:Meter:Cumulative,Electric Equipment:InteriorEquipment:Electricity:Zone:ZONE3-2_OPENOFFICE2_16_ADF85EEC,hourly; !- [J]
Output:Meter,Electric Equipment:InteriorEquipment:Electricity:SpaceType:3-2_OPENOFFICE2_BR_,hourly; !- [J]
Output:Meter:Cumulative,Electric Equipment:InteriorEquipment:Electricity:SpaceType:3-2_OPENOFFICE2_BR_,hourly; !- [J]
Output:Meter,InteriorEquipment:Electricity:Zone:ZONE3-2_OPENOFFICE2_9_6C3225F9,hourly; !- [J]
Output:Meter:Cumulative,InteriorEquipment:Electricity:Zone:ZONE3-2_OPENOFFICE2_9_6C3225F9,hourly; !- [J]
Output:Meter,Electric Equipment:InteriorEquipment:Electricity:Zone:ZONE3-2_OPENOFFICE2_9_6C3225F9,hourly; !- [J]
Output:Meter:Cumulative,Electric Equipment:InteriorEquipment:Electricity:Zone:ZONE3-2_OPENOFFICE2_9_6C3225F9,hourly; !- [J]
Output:Meter,InteriorEquipment:Electricity:Zone:ZONE3-2_OPENOFFICE2_10_B9C5C1E2,hourly; !- [J]
Output:Meter:Cumulative,InteriorEquipment:Electricity:Zone:ZONE3-2_OPENOFFICE2_10_B9C5C1E2,hourly; !- [J]
Output:Meter,Electric Equipment:InteriorEquipment:Electricity:Zone:ZONE3-2_OPENOFFICE2_10_B9C5C1E2,hourly; !- [J]
Output:Meter:Cumulative,Electric Equipment:InteriorEquipment:Electricity:Zone:ZONE3-2_OPENOFFICE2_10_B9C5C1E2,hourly; !- [J]
Output:Meter,InteriorEquipment:Electricity:Zone:ZONE3-2_OPENOFFICE2_5_2A12DE25,hourly; !- [J]
Output:Meter:Cumulative,InteriorEquipment:Electricity:Zone:ZONE3-2_OPENOFFICE2_5_2A12DE25,hourly; !- [J]
Output:Meter,Electric Equipment:InteriorEquipment:Electricity:Zone:ZONE3-2_OPENOFFICE2_5_2A12DE25,hourly; !- [J]
Output:Meter:Cumulative,Electric Equipment:InteriorEquipment:Electricity:Zone:ZONE3-2_OPENOFFICE2_5_2A12DE25,hourly; !- [J]
Output:Meter,InteriorEquipment:Electricity:Zone:ZONE3-2_OPENOFFICE2_15_CC8116DD,hourly; !- [J]
Output:Meter:Cumulative,InteriorEquipment:Electricity:Zone:ZONE3-2_OPENOFFICE2_15_CC8116DD,hourly; !- [J]
Output:Meter,Electric Equipment:InteriorEquipment:Electricity:Zone:ZONE3-2_OPENOFFICE2_15_CC8116DD,hourly; !- [J]
Output:Meter:Cumulative,Electric Equipment:InteriorEquipment:Electricity:Zone:ZONE3-2_OPENOFFICE2_15_CC8116DD,hourly; !- [J]
Output:Meter,InteriorEquipment:Electricity:Zone:ZONE3-2_OPENOFFICE2_18_C00ED735,hourly; !- [J]
Output:Meter:Cumulative,InteriorEquipment:Electricity:Zone:ZONE3-2_OPENOFFICE2_18_C00ED735,hourly; !- [J]
Output:Meter,Electric Equipment:InteriorEquipment:Electricity:Zone:ZONE3-2_OPENOFFICE2_18_C00ED735,hourly; !- [J]
Output:Meter:Cumulative,Electric Equipment:InteriorEquipment:Electricity:Zone:ZONE3-2_OPENOFFICE2_18_C00ED735,hourly; !- [J]
Output:Meter,InteriorEquipment:Electricity:Zone:ZONE3-2_OPENOFFICE2_8_104F9EB4,hourly; !- [J]
Output:Meter:Cumulative,InteriorEquipment:Electricity:Zone:ZONE3-2_OPENOFFICE2_8_104F9EB4,hourly; !- [J]
Output:Meter,Electric Equipment:InteriorEquipment:Electricity:Zone:ZONE3-2_OPENOFFICE2_8_104F9EB4,hourly; !- [J]
Output:Meter:Cumulative,Electric Equipment:InteriorEquipment:Electricity:Zone:ZONE3-2_OPENOFFICE2_8_104F9EB4,hourly; !- [J]
Output:Meter,InteriorEquipment:Electricity:Zone:ZONE3-2_OPENOFFICE2_1_ECE2C271,hourly; !- [J]
Output:Meter:Cumulative,InteriorEquipment:Electricity:Zone:ZONE3-2_OPENOFFICE2_1_ECE2C271,hourly; !- [J]
Output:Meter,Electric Equipment:InteriorEquipment:Electricity:Zone:ZONE3-2_OPENOFFICE2_1_ECE2C271,hourly; !- [J]
Output:Meter:Cumulative,Electric Equipment:InteriorEquipment:Electricity:Zone:ZONE3-2_OPENOFFICE2_1_ECE2C271,hourly; !- [J]
Output:Meter,InteriorEquipment:Electricity:Zone:ZONE3-2_OPENOFFICE2_2_5518A8FC,hourly; !- [J]
Output:Meter:Cumulative,InteriorEquipment:Electricity:Zone:ZONE3-2_OPENOFFICE2_2_5518A8FC,hourly; !- [J]
Output:Meter,Electric Equipment:InteriorEquipment:Electricity:Zone:ZONE3-2_OPENOFFICE2_2_5518A8FC,hourly; !- [J]
Output:Meter:Cumulative,Electric Equipment:InteriorEquipment:Electricity:Zone:ZONE3-2_OPENOFFICE2_2_5518A8FC,hourly; !- [J]
Output:Meter,InteriorEquipment:Electricity:Zone:ZONE3-2_OPENOFFICE2_3_C814639C,hourly; !- [J]
Output:Meter:Cumulative,InteriorEquipment:Electricity:Zone:ZONE3-2_OPENOFFICE2_3_C814639C,hourly; !- [J]
Output:Meter,Electric Equipment:InteriorEquipment:Electricity:Zone:ZONE3-2_OPENOFFICE2_3_C814639C,hourly; !- [J]
Output:Meter:Cumulative,Electric Equipment:InteriorEquipment:Electricity:Zone:ZONE3-2_OPENOFFICE2_3_C814639C,hourly; !- [J]
Output:Meter,InteriorEquipment:Electricity:Zone:ZONE3-2_OPENOFFICE2_13_3028A123,hourly; !- [J]
Output:Meter:Cumulative,InteriorEquipment:Electricity:Zone:ZONE3-2_OPENOFFICE2_13_3028A123,hourly; !- [J]
Output:Meter,Electric Equipment:InteriorEquipment:Electricity:Zone:ZONE3-2_OPENOFFICE2_13_3028A123,hourly; !- [J]
Output:Meter:Cumulative,Electric Equipment:InteriorEquipment:Electricity:Zone:ZONE3-2_OPENOFFICE2_13_3028A123,hourly; !- [J]
Output:Meter,InteriorEquipment:Electricity:Zone:ZONE3-2_OPENOFFICE2_4_DF3F73FF,hourly; !- [J]
Output:Meter:Cumulative,InteriorEquipment:Electricity:Zone:ZONE3-2_OPENOFFICE2_4_DF3F73FF,hourly; !- [J]
Output:Meter,Electric Equipment:InteriorEquipment:Electricity:Zone:ZONE3-2_OPENOFFICE2_4_DF3F73FF,hourly; !- [J]
Output:Meter:Cumulative,Electric Equipment:InteriorEquipment:Electricity:Zone:ZONE3-2_OPENOFFICE2_4_DF3F73FF,hourly; !- [J]
Output:Meter,InteriorEquipment:Electricity:Zone:ZONE3-2_OPENOFFICE2_6_9B68752E,hourly; !- [J]
Output:Meter:Cumulative,InteriorEquipment:Electricity:Zone:ZONE3-2_OPENOFFICE2_6_9B68752E,hourly; !- [J]
Output:Meter,Electric Equipment:InteriorEquipment:Electricity:Zone:ZONE3-2_OPENOFFICE2_6_9B68752E,hourly; !- [J]
Output:Meter:Cumulative,Electric Equipment:InteriorEquipment:Electricity:Zone:ZONE3-2_OPENOFFICE2_6_9B68752E,hourly; !- [J]
Output:Meter,InteriorEquipment:Electricity:Zone:ZONE3-2_OPENOFFICE2_7_76C03369,hourly; !- [J]
Output:Meter:Cumulative,InteriorEquipment:Electricity:Zone:ZONE3-2_OPENOFFICE2_7_76C03369,hourly; !- [J]
Output:Meter,Electric Equipment:InteriorEquipment:Electricity:Zone:ZONE3-2_OPENOFFICE2_7_76C03369,hourly; !- [J]
Output:Meter:Cumulative,Electric Equipment:InteriorEquipment:Electricity:Zone:ZONE3-2_OPENOFFICE2_7_76C03369,hourly; !- [J]
Output:Meter,InteriorEquipment:Electricity:Zone:ZONE3-2_OPENOFFICE2_17_2225E337,hourly; !- [J]
Output:Meter:Cumulative,InteriorEquipment:Electricity:Zone:ZONE3-2_OPENOFFICE2_17_2225E337,hourly; !- [J]
Output:Meter,Electric Equipment:InteriorEquipment:Electricity:Zone:ZONE3-2_OPENOFFICE2_17_2225E337,hourly; !- [J]
Output:Meter:Cumulative,Electric Equipment:InteriorEquipment:Electricity:Zone:ZONE3-2_OPENOFFICE2_17_2225E337,hourly; !- [J]
Output:Meter,InteriorEquipment:Electricity:Zone:ZONE3-2_OPENOFFICE2_11_E9A9F9C3,hourly; !- [J]
Output:Meter:Cumulative,InteriorEquipment:Electricity:Zone:ZONE3-2_OPENOFFICE2_11_E9A9F9C3,hourly; !- [J]
Output:Meter,Electric Equipment:InteriorEquipment:Electricity:Zone:ZONE3-2_OPENOFFICE2_11_E9A9F9C3,hourly; !- [J]
Output:Meter:Cumulative,Electric Equipment:InteriorEquipment:Electricity:Zone:ZONE3-2_OPENOFFICE2_11_E9A9F9C3,hourly; !- [J]
Output:Meter,InteriorEquipment:Electricity:Zone:ZONE3-2_OPENOFFICE2_12_5847D1C6,hourly; !- [J]
Output:Meter:Cumulative,InteriorEquipment:Electricity:Zone:ZONE3-2_OPENOFFICE2_12_5847D1C6,hourly; !- [J]
Output:Meter,Electric Equipment:InteriorEquipment:Electricity:Zone:ZONE3-2_OPENOFFICE2_12_5847D1C6,hourly; !- [J]
Output:Meter:Cumulative,Electric Equipment:InteriorEquipment:Electricity:Zone:ZONE3-2_OPENOFFICE2_12_5847D1C6,hourly; !- [J]
Output:Meter,InteriorEquipment:Electricity:Zone:ZONE3-2_OPENOFFICE2_14_E2D86807,hourly; !- [J]
Output:Meter:Cumulative,InteriorEquipment:Electricity:Zone:ZONE3-2_OPENOFFICE2_14_E2D86807,hourly; !- [J]
Output:Meter,Electric Equipment:InteriorEquipment:Electricity:Zone:ZONE3-2_OPENOFFICE2_14_E2D86807,hourly; !- [J]
Output:Meter:Cumulative,Electric Equipment:InteriorEquipment:Electricity:Zone:ZONE3-2_OPENOFFICE2_14_E2D86807,hourly; !- [J]
[...]
Output:Meter:Cumulative,Heating:EnergyTransfer:Zone:ZONE6_EQUIPMENT_2_EF97933C,hourly; !- [J]
Output:Meter,General:Heating:EnergyTransfer:Zone:ZONE6_EQUIPMENT_2_EF97933C,hourly; !- [J]
Output:Meter:Cumulative,General:Heating:EnergyTransfer:Zone:ZONE6_EQUIPMENT_2_EF97933C,hourly; !- [J]
Output:Meter,Cooling:EnergyTransfer:Zone:ZONE6_EQUIPMENT_2_EF97933C,hourly; !- [J]
Output:Meter:Cumulative,Cooling:EnergyTransfer:Zone:ZONE6_EQUIPMENT_2_EF97933C,hourly; !- [J]
Output:Meter,General:Cooling:EnergyTransfer:Zone:ZONE6_EQUIPMENT_2_EF97933C,hourly; !- [J]
Output:Meter:Cumulative,General:Cooling:EnergyTransfer:Zone:ZONE6_EQUIPMENT_2_EF97933C,hourly; !- [J]
Output:Meter,EnergyTransfer:Zone:ZONE6_EQUIPMENT_3_F31A8878,hourly; !- [J]
Output:Meter:Cumulative,EnergyTransfer:Zone:ZONE6_EQUIPMENT_3_F31A8878,hourly; !- [J]
Output:Meter,Heating:EnergyTransfer:Zone:ZONE6_EQUIPMENT_3_F31A8878,hourly; !- [J]
Output:Meter:Cumulative,Heating:EnergyTransfer:Zone:ZONE6_EQUIPMENT_3_F31A8878,hourly; !- [J]
Output:Meter,General:Heating:EnergyTransfer:Zone:ZONE6_EQUIPMENT_3_F31A8878,hourly; !- [J]
Output:Meter:Cumulative,General:Heating:EnergyTransfer:Zone:ZONE6_EQUIPMENT_3_F31A8878,hourly; !- [J]
Output:Meter,Cooling:EnergyTransfer:Zone:ZONE6_EQUIPMENT_3_F31A8878,hourly; !- [J]
Output:Meter:Cumulative,Cooling:EnergyTransfer:Zone:ZONE6_EQUIPMENT_3_F31A8878,hourly; !- [J]
Output:Meter,General:Cooling:EnergyTransfer:Zone:ZONE6_EQUIPMENT_3_F31A8878,hourly; !- [J]
Output:Meter:Cumulative,General:Cooling:EnergyTransfer:Zone:ZONE6_EQUIPMENT_3_F31A8878,hourly; !- [J]
Output:Meter,EnergyTransfer:Zone:ZONE7SHAFT_1_FDB86AD9,hourly; !- [J]
Output:Meter:Cumulative,EnergyTransfer:Zone:ZONE7SHAFT_1_FDB86AD9,hourly; !- [J]
Output:Meter,Heating:EnergyTransfer:Zone:ZONE7SHAFT_1_FDB86AD9,hourly; !- [J]
Output:Meter:Cumulative,Heating:EnergyTransfer:Zone:ZONE7SHAFT_1_FDB86AD9,hourly; !- [J]
Output:Meter,General:Heating:EnergyTransfer:Zone:ZONE7SHAFT_1_FDB86AD9,hourly; !- [J]
Output:Meter:Cumulative,General:Heating:EnergyTransfer:Zone:ZONE7SHAFT_1_FDB86AD9,hourly; !- [J]
Output:Meter,Cooling:EnergyTransfer:Zone:ZONE7SHAFT_1_FDB86AD9,hourly; !- [J]
Output:Meter:Cumulative,Cooling:EnergyTransfer:Zone:ZONE7SHAFT_1_FDB86AD9,hourly; !- [J]
Output:Meter,General:Cooling:EnergyTransfer:Zone:ZONE7SHAFT_1_FDB86AD9,hourly; !- [J]
Output:Meter:Cumulative,General:Cooling:EnergyTransfer:Zone:ZONE7SHAFT_1_FDB86AD9,hourly; !- [J]
Output:Meter,EnergyTransfer:Zone:ZONE7SHAFT_2_D4B916FD,hourly; !- [J]
Output:Meter:Cumulative,EnergyTransfer:Zone:ZONE7SHAFT_2_D4B916FD,hourly; !- [J]
Output:Meter,Heating:EnergyTransfer:Zone:ZONE7SHAFT_2_D4B916FD,hourly; !- [J]
Output:Meter:Cumulative,Heating:EnergyTransfer:Zone:ZONE7SHAFT_2_D4B916FD,hourly; !- [J]
Output:Meter,General:Heating:EnergyTransfer:Zone:ZONE7SHAFT_2_D4B916FD,hourly; !- [J]
Output:Meter:Cumulative,General:Heating:EnergyTransfer:Zone:ZONE7SHAFT_2_D4B916FD,hourly; !- [J]
Output:Meter,Cooling:EnergyTransfer:Zone:ZONE7SHAFT_2_D4B916FD,hourly; !- [J]
Output:Meter:Cumulative,Cooling:EnergyTransfer:Zone:ZONE7SHAFT_2_D4B916FD,hourly; !- [J]
Output:Meter,General:Cooling:EnergyTransfer:Zone:ZONE7SHAFT_2_D4B916FD,hourly; !- [J]
Output:Meter:Cumulative,General:Cooling:EnergyTransfer:Zone:ZONE7SHAFT_2_D4B916FD,hourly; !- [J]
Output:Meter,EnergyTransfer:Zone:ZONE7SHAFT_3_EA084389,hourly; !- [J]
Output:Meter:Cumulative,EnergyTransfer:Zone:ZONE7SHAFT_3_EA084389,hourly; !- [J]
Output:Meter,Heating:EnergyTransfer:Zone:ZONE7SHAFT_3_EA084389,hourly; !- [J]
Output:Meter:Cumulative,Heating:EnergyTransfer:Zone:ZONE7SHAFT_3_EA084389,hourly; !- [J]
Output:Meter,General:Heating:EnergyTransfer:Zone:ZONE7SHAFT_3_EA084389,hourly; !- [J]
Output:Meter:Cumulative,General:Heating:EnergyTransfer:Zone:ZONE7SHAFT_3_EA084389,hourly; !- [J]
Output:Meter,Cooling:EnergyTransfer:Zone:ZONE7SHAFT_3_EA084389,hourly; !- [J]
Output:Meter:Cumulative,Cooling:EnergyTransfer:Zone:ZONE7SHAFT_3_EA084389,hourly; !- [J]
Output:Meter,General:Cooling:EnergyTransfer:Zone:ZONE7SHAFT_3_EA084389,hourly; !- [J]
Output:Meter:Cumulative,General:Cooling:EnergyTransfer:Zone:ZONE7SHAFT_3_EA084389,hourly; !- [J]
Output:Meter,EnergyTransfer:Zone:ZONE7SHAFT_4_D39F6429,hourly; !- [J]
Output:Meter:Cumulative,EnergyTransfer:Zone:ZONE7SHAFT_4_D39F6429,hourly; !- [J]
Output:Meter,Heating:EnergyTransfer:Zone:ZONE7SHAFT_4_D39F6429,hourly; !- [J]
Output:Meter:Cumulative,Heating:EnergyTransfer:Zone:ZONE7SHAFT_4_D39F6429,hourly; !- [J]
Output:Meter,General:Heating:EnergyTransfer:Zone:ZONE7SHAFT_4_D39F6429,hourly; !- [J]
Output:Meter:Cumulative,General:Heating:EnergyTransfer:Zone:ZONE7SHAFT_4_D39F6429,hourly; !- [J]
Output:Meter,Cooling:EnergyTransfer:Zone:ZONE7SHAFT_4_D39F6429,hourly; !- [J]
Output:Meter:Cumulative,Cooling:EnergyTransfer:Zone:ZONE7SHAFT_4_D39F6429,hourly; !- [J]
Output:Meter,General:Cooling:EnergyTransfer:Zone:ZONE7SHAFT_4_D39F6429,hourly; !- [J]
Output:Meter:Cumulative,General:Cooling:EnergyTransfer:Zone:ZONE7SHAFT_4_D39F6429,hourly; !- [J]
Output:Meter,EnergyTransfer:Zone:ZONE7SHAFT_5_DB2DEEF5,hourly; !- [J]
Output:Meter:Cumulative,EnergyTransfer:Zone:ZONE7SHAFT_5_DB2DEEF5,hourly; !- [J]
Output:Meter,Heating:EnergyTransfer:Zone:ZONE7SHAFT_5_DB2DEEF5,hourly; !- [J]
Output:Meter:Cumulative,Heating:EnergyTransfer:Zone:ZONE7SHAFT_5_DB2DEEF5,hourly; !- [J]
Output:Meter,General:Heating:EnergyTransfer:Zone:ZONE7SHAFT_5_DB2DEEF5,hourly; !- [J]
Output:Meter:Cumulative,General:Heating:EnergyTransfer:Zone:ZONE7SHAFT_5_DB2DEEF5,hourly; !- [J]
Output:Meter,Cooling:EnergyTransfer:Zone:ZONE7SHAFT_5_DB2DEEF5,hourly; !- [J]
Output:Meter:Cumulative,Cooling:EnergyTransfer:Zone:ZONE7SHAFT_5_DB2DEEF5,hourly; !- [J]
Output:Meter,General:Cooling:EnergyTransfer:Zone:ZONE7SHAFT_5_DB2DEEF5,hourly; !- [J]
Output:Meter:Cumulative,General:Cooling:EnergyTransfer:Zone:ZONE7SHAFT_5_DB2DEEF5,hourly; !- [J]
Output:Meter,EnergyTransfer:Zone:ZONE7SHAFT_6_667E71F6,hourly; !- [J]
Output:Meter:Cumulative,EnergyTransfer:Zone:ZONE7SHAFT_6_667E71F6,hourly; !- [J]
Output:Meter,Heating:EnergyTransfer:Zone:ZONE7SHAFT_6_667E71F6,hourly; !- [J]
Output:Meter:Cumulative,Heating:EnergyTransfer:Zone:ZONE7SHAFT_6_667E71F6,hourly; !- [J]
Output:Meter,General:Heating:EnergyTransfer:Zone:ZONE7SHAFT_6_667E71F6,hourly; !- [J]
Output:Meter:Cumulative,General:Heating:EnergyTransfer:Zone:ZONE7SHAFT_6_667E71F6,hourly; !- [J]
Output:Meter,Cooling:EnergyTransfer:Zone:ZONE7SHAFT_6_667E71F6,hourly; !- [J]
Output:Meter:Cumulative,Cooling:EnergyTransfer:Zone:ZONE7SHAFT_6_667E71F6,hourly; !- [J]
Output:Meter,General:Cooling:EnergyTransfer:Zone:ZONE7SHAFT_6_667E71F6,hourly; !- [J]
Output:Meter:Cumulative,General:Cooling:EnergyTransfer:Zone:ZONE7SHAFT_6_667E71F6,hourly; !- [J]
Output:Meter,EnergyTransfer:Zone:ZONE8_VRF_1_F76CEF6A,hourly; !- [J]
Output:Meter:Cumulative,EnergyTransfer:Zone:ZONE8_VRF_1_F76CEF6A,hourly; !- [J]
Output:Meter,Heating:EnergyTransfer:Zone:ZONE8_VRF_1_F76CEF6A,hourly; !- [J]
Output:Meter:Cumulative,Heating:EnergyTransfer:Zone:ZONE8_VRF_1_F76CEF6A,hourly; !- [J]
Output:Meter,General:Heating:EnergyTransfer:Zone:ZONE8_VRF_1_F76CEF6A,hourly; !- [J]
Output:Meter:Cumulative,General:Heating:EnergyTransfer:Zone:ZONE8_VRF_1_F76CEF6A,hourly; !- [J]
Output:Meter,Cooling:EnergyTransfer:Zone:ZONE8_VRF_1_F76CEF6A,hourly; !- [J]
Output:Meter:Cumulative,Cooling:EnergyTransfer:Zone:ZONE8_VRF_1_F76CEF6A,hourly; !- [J]
Output:Meter,General:Cooling:EnergyTransfer:Zone:ZONE8_VRF_1_F76CEF6A,hourly; !- [J]
Output:Meter:Cumulative,General:Cooling:EnergyTransfer:Zone:ZONE8_VRF_1_F76CEF6A,hourly; !- [J]
Output:Meter,EnergyTransfer:Zone:ZONE8_VRF_2_09EF7482,hourly; !- [J]
Output:Meter:Cumulative,EnergyTransfer:Zone:ZONE8_VRF_2_09EF7482,hourly; !- [J]
Output:Meter,Heating:EnergyTransfer:Zone:ZONE8_VRF_2_09EF7482,hourly; !- [J]
Output:Meter:Cumulative,Heating:EnergyTransfer:Zone:ZONE8_VRF_2_09EF7482,hourly; !- [J]
Output:Meter,General:Heating:EnergyTransfer:Zone:ZONE8_VRF_2_09EF7482,hourly; !- [J]
Output:Meter:Cumulative,General:Heating:EnergyTransfer:Zone:ZONE8_VRF_2_09EF7482,hourly; !- [J]
Output:Meter,Cooling:EnergyTransfer:Zone:ZONE8_VRF_2_09EF7482,hourly; !- [J]
Output:Meter:Cumulative,Cooling:EnergyTransfer:Zone:ZONE8_VRF_2_09EF7482,hourly; !- [J]
Output:Meter,General:Cooling:EnergyTransfer:Zone:ZONE8_VRF_2_09EF7482,hourly; !- [J]
Output:Meter:Cumulative,General:Cooling:EnergyTransfer:Zone:ZONE8_VRF_2_09EF7482,hourly; !- [J]
Output:Meter,EnergyTransfer:Zone:ZONE8_VRF_3_160597A0,hourly; !- [J]
Output:Meter:Cumulative,EnergyTransfer:Zone:ZONE8_VRF_3_160597A0,hourly; !- [J]
Output:Meter,Heating:EnergyTransfer:Zone:ZONE8_VRF_3_160597A0,hourly; !- [J]
Output:Meter:Cumulative,Heating:EnergyTransfer:Zone:ZONE8_VRF_3_160597A0,hourly; !- [J]
Output:Meter,General:Heating:EnergyTransfer:Zone:ZONE8_VRF_3_160597A0,hourly; !- [J]
Output:Meter:Cumulative,General:Heating:EnergyTransfer:Zone:ZONE8_VRF_3_160597A0,hourly; !- [J]
Output:Meter,Cooling:EnergyTransfer:Zone:ZONE8_VRF_3_160597A0,hourly; !- [J]
Output:Meter:Cumulative,Cooling:EnergyTransfer:Zone:ZONE8_VRF_3_160597A0,hourly; !- [J]
Output:Meter,General:Cooling:EnergyTransfer:Zone:ZONE8_VRF_3_160597A0,hourly; !- [J]
Output:Meter:Cumulative,General:Cooling:EnergyTransfer:Zone:ZONE8_VRF_3_160597A0,hourly; !- [J]
Output:Meter,EnergyTransfer:Zone:ZONE8_VRF_4_A320504E,hourly; !- [J]
Output:Meter:Cumulative,EnergyTransfer:Zone:ZONE8_VRF_4_A320504E,hourly; !- [J]
Output:Meter,Heating:EnergyTransfer:Zone:ZONE8_VRF_4_A320504E,hourly; !- [J]
Output:Meter:Cumulative,Heating:EnergyTransfer:Zone:ZONE8_VRF_4_A320504E,hourly; !- [J]
Output:Meter,General:Heating:EnergyTransfer:Zone:ZONE8_VRF_4_A320504E,hourly; !- [J]
Output:Meter:Cumulative,General:Heating:EnergyTransfer:Zone:ZONE8_VRF_4_A320504E,hourly; !- [J]
Output:Meter,Cooling:EnergyTransfer:Zone:ZONE8_VRF_4_A320504E,hourly; !- [J]
Output:Meter:Cumulative,Cooling:EnergyTransfer:Zone:ZONE8_VRF_4_A320504E,hourly; !- [J]
Output:Meter,General:Cooling:EnergyTransfer:Zone:ZONE8_VRF_4_A320504E,hourly; !- [J]
Output:Meter:Cumulative,General:Cooling:EnergyTransfer:Zone:ZONE8_VRF_4_A320504E,hourly; !- [J]
Output:Meter,EnergyTransfer:Zone:ZONE8_VRF_5_13A416AD,hourly; !- [J]
Output:Meter:Cumulative,EnergyTransfer:Zone:ZONE8_VRF_5_13A416AD,hourly; !- [J]
Output:Meter,Heating:EnergyTransfer:Zone:ZONE8_VRF_5_13A416AD,hourly; !- [J]
Output:Meter:Cumulative,Heating:EnergyTransfer:Zone:ZONE8_VRF_5_13A416AD,hourly; !- [J]
Output:Meter,General:Heating:EnergyTransfer:Zone:ZONE8_VRF_5_13A416AD,hourly; !- [J]
Output:Meter:Cumulative,General:Heating:EnergyTransfer:Zone:ZONE8_VRF_5_13A416AD,hourly; !- [J]
Output:Meter,Cooling:EnergyTransfer:Zone:ZONE8_VRF_5_13A416AD,hourly; !- [J]
Output:Meter:Cumulative,Cooling:EnergyTransfer:Zone:ZONE8_VRF_5_13A416AD,hourly; !- [J]
Output:Meter,General:Cooling:EnergyTransfer:Zone:ZONE8_VRF_5_13A416AD,hourly; !- [J]
Output:Meter:Cumulative,General:Cooling:EnergyTransfer:Zone:ZONE8_VRF_5_13A416AD,hourly; !- [J]
Output:Meter,EnergyTransfer:Zone:ZONE9STORE_1_A17ED0D6,hourly; !- [J]
Output:Meter:Cumulative,EnergyTransfer:Zone:ZONE9STORE_1_A17ED0D6,hourly; !- [J]
Output:Meter,Heating:EnergyTransfer:Zone:ZONE9STORE_1_A17ED0D6,hourly; !- [J]
Output:Meter:Cumulative,Heating:EnergyTransfer:Zone:ZONE9STORE_1_A17ED0D6,hourly; !- [J]
Output:Meter,General:Heating:EnergyTransfer:Zone:ZONE9STORE_1_A17ED0D6,hourly; !- [J]
Output:Meter:Cumulative,General:Heating:EnergyTransfer:Zone:ZONE9STORE_1_A17ED0D6,hourly; !- [J]
Output:Meter,Cooling:EnergyTransfer:Zone:ZONE9STORE_1_A17ED0D6,hourly; !- [J]
Output:Meter:Cumulative,Cooling:EnergyTransfer:Zone:ZONE9STORE_1_A17ED0D6,hourly; !- [J]
Output:Meter,General:Cooling:EnergyTransfer:Zone:ZONE9STORE_1_A17ED0D6,hourly; !- [J]
Output:Meter:Cumulative,General:Cooling:EnergyTransfer:Zone:ZONE9STORE_1_A17ED0D6,hourly; !- [J]
Output:Meter,EnergyTransfer:Zone:ZONE9STORE_2_1B33B974,hourly; !- [J]
Output:Meter:Cumulative,EnergyTransfer:Zone:ZONE9STORE_2_1B33B974,hourly; !- [J]
Output:Meter,Heating:EnergyTransfer:Zone:ZONE9STORE_2_1B33B974,hourly; !- [J]
Output:Meter:Cumulative,Heating:EnergyTransfer:Zone:ZONE9STORE_2_1B33B974,hourly; !- [J]
Output:Meter,General:Heating:EnergyTransfer:Zone:ZONE9STORE_2_1B33B974,hourly; !- [J]
Output:Meter:Cumulative,General:Heating:EnergyTransfer:Zone:ZONE9STORE_2_1B33B974,hourly; !- [J]
Output:Meter,Cooling:EnergyTransfer:Zone:ZONE9STORE_2_1B33B974,hourly; !- [J]
Output:Meter:Cumulative,Cooling:EnergyTransfer:Zone:ZONE9STORE_2_1B33B974,hourly; !- [J]
Output:Meter,General:Cooling:EnergyTransfer:Zone:ZONE9STORE_2_1B33B974,hourly; !- [J]
Output:Meter:Cumulative,General:Cooling:EnergyTransfer:Zone:ZONE9STORE_2_1B33B974,hourly; !- [J]
Output:Meter,DistrictHeatingWater:Facility,hourly; !- [J]
Output:Meter:Cumulative,DistrictHeatingWater:Facility,hourly; !- [J]
Output:Meter,DistrictHeatingWater:Plant,hourly; !- [J]
Output:Meter:Cumulative,DistrictHeatingWater:Plant,hourly; !- [J]
Output:Meter,Heating:DistrictHeatingWater,hourly; !- [J]
Output:Meter:Cumulative,Heating:DistrictHeatingWater,hourly; !- [J]
Output:Meter,General:Heating:DistrictHeatingWater,hourly; !- [J]
Output:Meter:Cumulative,General:Heating:DistrictHeatingWater,hourly; !- [J]
Output:Meter,ElectricityPurchased:Facility,hourly; !- [J]
Output:Meter:Cumulative,ElectricityPurchased:Facility,hourly; !- [J]
Output:Meter,ElectricityPurchased:Plant,hourly; !- [J]
Output:Meter:Cumulative,ElectricityPurchased:Plant,hourly; !- [J]
Output:Meter,Cogeneration:ElectricityPurchased,hourly; !- [J]
Output:Meter:Cumulative,Cogeneration:ElectricityPurchased,hourly; !- [J]
Output:Meter,General:Cogeneration:ElectricityPurchased,hourly; !- [J]
Output:Meter:Cumulative,General:Cogeneration:ElectricityPurchased,hourly; !- [J]
Output:Meter,ElectricitySurplusSold:Facility,hourly; !- [J]
Output:Meter:Cumulative,ElectricitySurplusSold:Facility,hourly; !- [J]
Output:Meter,ElectricitySurplusSold:Plant,hourly; !- [J]
Output:Meter:Cumulative,ElectricitySurplusSold:Plant,hourly; !- [J]
Output:Meter,Cogeneration:ElectricitySurplusSold,hourly; !- [J]
Output:Meter:Cumulative,Cogeneration:ElectricitySurplusSold,hourly; !- [J]
Output:Meter,General:Cogeneration:ElectricitySurplusSold,hourly; !- [J]
Output:Meter:Cumulative,General:Cogeneration:ElectricitySurplusSold,hourly; !- [J]
Output:Meter,ElectricityNet:Facility,hourly; !- [J]
Output:Meter:Cumulative,ElectricityNet:Facility,hourly; !- [J]
Output:Meter,ElectricityNet:Plant,hourly; !- [J]
Output:Meter:Cumulative,ElectricityNet:Plant,hourly; !- [J]
Output:Meter,Cogeneration:ElectricityNet,hourly; !- [J]
Output:Meter:Cumulative,Cogeneration:ElectricityNet,hourly; !- [J]
Output:Meter,General:Cogeneration:ElectricityNet,hourly; !- [J]
Output:Meter:Cumulative,General:Cogeneration:ElectricityNet,hourly; !- [J]
Output:Meter,EnergyTransfer:HVAC,hourly; !- [J]
Output:Meter:Cumulative,EnergyTransfer:HVAC,hourly; !- [J]
Output:Meter,Baseboard:EnergyTransfer,hourly; !- [J]
Output:Meter:Cumulative,Baseboard:EnergyTransfer,hourly; !- [J]
Output:Meter,PlantLoopHeatingDemand:Facility,hourly; !- [J]
Output:Meter:Cumulative,PlantLoopHeatingDemand:Facility,hourly; !- [J]
Output:Meter,PlantLoopHeatingDemand:HVAC,hourly; !- [J]
Output:Meter:Cumulative,PlantLoopHeatingDemand:HVAC,hourly; !- [J]
Output:Meter,Baseboard:PlantLoopHeatingDemand,hourly; !- [J]
Output:Meter:Cumulative,Baseboard:PlantLoopHeatingDemand,hourly; !- [J]
Output:Meter,HeatingCoils:EnergyTransfer,hourly; !- [J]
Output:Meter:Cumulative,HeatingCoils:EnergyTransfer,hourly; !- [J]
Output:Meter,HeatingCoils:PlantLoopHeatingDemand,hourly; !- [J]
Output:Meter:Cumulative,HeatingCoils:PlantLoopHeatingDemand,hourly; !- [J]
Output:Meter,CoolingCoils:EnergyTransfer,hourly; !- [J]
Output:Meter:Cumulative,CoolingCoils:EnergyTransfer,hourly; !- [J]
Output:Meter,PlantLoopCoolingDemand:Facility,hourly; !- [J]
Output:Meter:Cumulative,PlantLoopCoolingDemand:Facility,hourly; !- [J]
Output:Meter,PlantLoopCoolingDemand:HVAC,hourly; !- [J]
Output:Meter:Cumulative,PlantLoopCoolingDemand:HVAC,hourly; !- [J]
Output:Meter,CoolingCoils:PlantLoopCoolingDemand,hourly; !- [J]
Output:Meter:Cumulative,CoolingCoils:PlantLoopCoolingDemand,hourly; !- [J]
Output:Meter,Electricity:HVAC,hourly; !- [J]
Output:Meter:Cumulative,Electricity:HVAC,hourly; !- [J]
Output:Meter,DOAS Fans:Fans:Electricity,hourly; !- [J]
Output:Meter:Cumulative,DOAS Fans:Fans:Electricity,hourly; !- [J]
Output:Meter,FCU Fans:Fans:Electricity,hourly; !- [J]
Output:Meter:Cumulative,FCU Fans:Fans:Electricity,hourly; !- [J]
Output:Meter,DistrictHeatingWater:HVAC,hourly; !- [J]
Output:Meter:Cumulative,DistrictHeatingWater:HVAC,hourly; !- [J]
Output:Meter,DistrictCooling:Facility,hourly; !- [J]
Output:Meter:Cumulative,DistrictCooling:Facility,hourly; !- [J]
Output:Meter,DistrictCooling:HVAC,hourly; !- [J]
Output:Meter:Cumulative,DistrictCooling:HVAC,hourly; !- [J]
Output:Meter,Cooling:DistrictCooling,hourly; !- [J]
Output:Meter:Cumulative,Cooling:DistrictCooling,hourly; !- [J]
Output:Meter,General:Cooling:DistrictCooling,hourly; !- [J]
Output:Meter:Cumulative,General:Cooling:DistrictCooling,hourly; !- [J]
Output:Meter,HeatRecoveryForHeating:EnergyTransfer,hourly; !- [J]
Output:Meter:Cumulative,HeatRecoveryForHeating:EnergyTransfer,hourly; !- [J]
Output:Meter,HeatRecoveryForCooling:EnergyTransfer,hourly; !- [J]
Output:Meter:Cumulative,HeatRecoveryForCooling:EnergyTransfer,hourly; !- [J]
Output:Meter,HeatRecovery:Electricity,hourly; !- [J]
Output:Meter:Cumulative,HeatRecovery:Electricity,hourly; !- [J]
Output:Meter,General:HeatRecovery:Electricity,hourly; !- [J]
Output:Meter:Cumulative,General:HeatRecovery:Electricity,hourly; !- [J]
Output:Meter,Electricity:Plant,hourly; !- [J]
Output:Meter:Cumulative,Electricity:Plant,hourly; !- [J]
Output:Meter,Cooling:Electricity,hourly; !- [J]
Output:Meter:Cumulative,Cooling:Electricity,hourly; !- [J]
Output:Meter,General:Cooling:Electricity,hourly; !- [J]
Output:Meter:Cumulative,General:Cooling:Electricity,hourly; !- [J]
Output:Meter,EnergyTransfer:Plant,hourly; !- [J]
Output:Meter:Cumulative,EnergyTransfer:Plant,hourly; !- [J]
Output:Meter,Chillers:EnergyTransfer,hourly; !- [J]
Output:Meter:Cumulative,Chillers:EnergyTransfer,hourly; !- [J]
Output:Meter,HeatRejection:EnergyTransfer,hourly; !- [J]
Output:Meter:Cumulative,HeatRejection:EnergyTransfer,hourly; !- [J]
Output:Meter,General:HeatRejection:EnergyTransfer,hourly; !- [J]
Output:Meter:Cumulative,General:HeatRejection:EnergyTransfer,hourly; !- [J]
Output:Meter,HeatRejection:Electricity,hourly; !- [J]
Output:Meter:Cumulative,HeatRejection:Electricity,hourly; !- [J]
Output:Meter,General:HeatRejection:Electricity,hourly; !- [J]
Output:Meter:Cumulative,General:HeatRejection:Electricity,hourly; !- [J]
Output:Meter,Water:Facility,hourly; !- [m3]
Output:Meter:Cumulative,Water:Facility,hourly; !- [m3]
Output:Meter,Water:Plant,hourly; !- [m3]
Output:Meter:Cumulative,Water:Plant,hourly; !- [m3]
Output:Meter,HeatRejection:Water,hourly; !- [m3]
Output:Meter:Cumulative,HeatRejection:Water,hourly; !- [m3]
Output:Meter,General:HeatRejection:Water,hourly; !- [m3]
Output:Meter:Cumulative,General:HeatRejection:Water,hourly; !- [m3]
Output:Meter,MainsWater:Facility,hourly; !- [m3]
Output:Meter:Cumulative,MainsWater:Facility,hourly; !- [m3]
Output:Meter,MainsWater:Plant,hourly; !- [m3]
Output:Meter:Cumulative,MainsWater:Plant,hourly; !- [m3]
Output:Meter,HeatRejection:MainsWater,hourly; !- [m3]
Output:Meter:Cumulative,HeatRejection:MainsWater,hourly; !- [m3]
Output:Meter,General:HeatRejection:MainsWater,hourly; !- [m3]
Output:Meter:Cumulative,General:HeatRejection:MainsWater,hourly; !- [m3]
Output:Meter,Pumps:Electricity,hourly; !- [J]
Output:Meter:Cumulative,Pumps:Electricity,hourly; !- [J]
Output:Meter,General:Pumps:Electricity,hourly; !- [J]
Output:Meter:Cumulative,General:Pumps:Electricity,hourly; !- [J]
Output:Meter,Carbon Equivalent:Facility,hourly; !- [kg]
Output:Meter:Cumulative,Carbon Equivalent:Facility,hourly; !- [kg]
Output:Meter,CarbonEquivalentEmissions:Carbon Equivalent,hourly; !- [kg]
Output:Meter:Cumulative,CarbonEquivalentEmissions:Carbon Equivalent,hourly; !- [kg]
